*
*
*
*                       LINUX           Mon Oct  5 14:10:32 2015
*
*
*
*  PROGRAM  advgen
*
*  Name           : advgen - Quantus QRC - (64-bit)
*  Version        : 14.2.2-s209
*  Build Date     : Tue Mar 24 21:40:50 PDT 2015
*
*  HSPICE LIBRARY
*
*
*
*
*       SUBCIRCUIT DEFINITIONS
*
.SUBCKT diodenwx#20auLvs#20cmhv7sf MINUS PLUS
.ENDS
*
.SUBCKT subcx#20auLvs#20cmhv7sf SUBCON sub
.ENDS
*

*
.SUBCKT RDAC P1 P2 P3 P4 P5 VON VOP bias vdda vssa vsub
*
*
*  caps2d version: 10
*
*       SUBCIRCUIT CALLS
*
XavD282_1 vdda vsub diodenwx#20auLvs#20cmhv7sf
+ perim=0.00018204 pcp=5.26096e-14 c=1.57606e-13 area=1.85419e-09
XavD150_1 vssa vsub subcx#20auLvs#20cmhv7sf
+ w=6.05748e-07 p=0.00012768 l=6.32343e-05 a=3.8304e-11
XavD150_2 vssa vsub subcx#20auLvs#20cmhv7sf
+ w=6.05748e-07 p=0.00012768 l=6.32343e-05 a=3.8304e-11
XavD150_3 vssa vsub subcx#20auLvs#20cmhv7sf
+ w=6.17998e-07 p=4.244e-05 l=2.0602e-05 a=1.2732e-11
XavD150_4 vssa vsub subcx#20auLvs#20cmhv7sf
+ w=6.01623e-07 p=0.00044612 l=0.000222458 a=1.33836e-10
*
*       TRANSISTOR CARDS
*
*
MavD36_1	avC4	P3	VON	vsub	nfetx#20auLvs#20cmhv7sf
+ L=0.18U	W=2.5U
+ AD=0.6344P	AS=1.0492P	PD=2.96U	PS=5.74U
+ wt=2.5e-06 sd=0 sb=2.56e-06 sa=4.6e-07 rf=0 psp=0 par=1 nrs=0.106557 nrd=0.106557 nf=1 mSwitch=0 m=1 gns=0 gcon=1 blockParasiticsBetween="PC
MavD36_2	VON	P3	avC4	vsub	nfetx#20auLvs#20cmhv7sf
+ L=0.18U	W=2.5U
+ AD=0.6344P	AS=0.6344P	PD=2.96U	PS=2.96U
+ wt=2.5e-06 sd=0 sb=1.86e-06 sa=1.16e-06 rf=0 psp=0 par=1 nrs=0.106557 nrd=0.106557 nf=1 mSwitch=0 m=1 gns=0 gcon=1 blockParasiticsBetween="PC
MavD36_3	avC4	P3	VON	vsub	nfetx#20auLvs#20cmhv7sf
+ L=0.18U	W=2.5U
+ AD=0.6344P	AS=0.6344P	PD=2.96U	PS=2.96U
+ wt=2.5e-06 sd=0 sb=1.16e-06 sa=1.86e-06 rf=0 psp=0 par=1 nrs=0.106557 nrd=0.106557 nf=1 mSwitch=0 m=1 gns=0 gcon=1 blockParasiticsBetween="PC
MavD36_4	VON	P3	avC4	vsub	nfetx#20auLvs#20cmhv7sf
+ L=0.18U	W=2.5U
+ AD=1.0492P	AS=0.6344P	PD=5.74U	PS=2.96U
+ wt=2.5e-06 sd=0 sb=4.6e-07 sa=2.56e-06 rf=0 psp=0 par=1 nrs=0.106557 nrd=0.106557 nf=1 mSwitch=0 m=1 gns=0 gcon=1 blockParasiticsBetween="PC
MavD36_5	avC3	avC4	avC4	vsub	nfetx#20auLvs#20cmhv7sf
+ L=1U	W=2U
+ AD=0.8342P	AS=0.8342P	PD=4.74U	PS=4.74U
+ wt=2e-06 sd=0 sb=4.6e-07 sa=4.6e-07 rf=0 psp=0 par=1 nrs=0.134021 nrd=0.134021 nf=1 mSwitch=0 m=1 gns=0 gcon=1 blockParasiticsBetween="PC
MavD36_6	vssa	avC3	avC3	vsub	nfetx#20auLvs#20cmhv7sf
+ L=1U	W=2U
+ AD=0.8342P	AS=0.8342P	PD=4.74U	PS=4.74U
+ wt=2e-06 sd=0 sb=4.6e-07 sa=4.6e-07 rf=0 psp=0 par=1 nrs=0.134021 nrd=0.134021 nf=1 mSwitch=0 m=1 gns=0 gcon=1 blockParasiticsBetween="PC
MavD36_7	avC10	P2	VON	vsub	nfetx#20auLvs#20cmhv7sf
+ L=0.18U	W=2.5U
+ AD=0.6344P	AS=1.0492P	PD=2.96U	PS=5.74U
+ wt=2.5e-06 sd=0 sb=2.56e-06 sa=4.6e-07 rf=0 psp=0 par=1 nrs=0.106557 nrd=0.106557 nf=1 mSwitch=0 m=1 gns=0 gcon=1 blockParasiticsBetween="PC
MavD36_8	VON	P2	avC10	vsub	nfetx#20auLvs#20cmhv7sf
+ L=0.18U	W=2.5U
+ AD=0.6344P	AS=0.6344P	PD=2.96U	PS=2.96U
+ wt=2.5e-06 sd=0 sb=1.86e-06 sa=1.16e-06 rf=0 psp=0 par=1 nrs=0.106557 nrd=0.106557 nf=1 mSwitch=0 m=1 gns=0 gcon=1 blockParasiticsBetween="PC
MavD36_9	avC10	P2	VON	vsub	nfetx#20auLvs#20cmhv7sf
+ L=0.18U	W=2.5U
+ AD=0.6344P	AS=0.6344P	PD=2.96U	PS=2.96U
+ wt=2.5e-06 sd=0 sb=1.16e-06 sa=1.86e-06 rf=0 psp=0 par=1 nrs=0.106557 nrd=0.106557 nf=1 mSwitch=0 m=1 gns=0 gcon=1 blockParasiticsBetween="PC
MavD36_10	VON	P2	avC10	vsub	nfetx#20auLvs#20cmhv7sf
+ L=0.18U	W=2.5U
+ AD=1.0492P	AS=0.6344P	PD=5.74U	PS=2.96U
+ wt=2.5e-06 sd=0 sb=4.6e-07 sa=2.56e-06 rf=0 psp=0 par=1 nrs=0.106557 nrd=0.106557 nf=1 mSwitch=0 m=1 gns=0 gcon=1 blockParasiticsBetween="PC
MavD36_11	VON	P1	avC9	vsub	nfetx#20auLvs#20cmhv7sf
+ L=0.18U	W=2.5U
+ AD=0.6344P	AS=0.6344P	PD=2.96U	PS=2.96U
+ wt=2.5e-06 sd=0 sb=1.86e-06 sa=1.16e-06 rf=0 psp=0 par=1 nrs=0.106557 nrd=0.106557 nf=1 mSwitch=0 m=1 gns=0 gcon=1 blockParasiticsBetween="PC
MavD36_12	avC9	P1	VON	vsub	nfetx#20auLvs#20cmhv7sf
+ L=0.18U	W=2.5U
+ AD=0.6344P	AS=0.6344P	PD=2.96U	PS=2.96U
+ wt=2.5e-06 sd=0 sb=1.16e-06 sa=1.86e-06 rf=0 psp=0 par=1 nrs=0.106557 nrd=0.106557 nf=1 mSwitch=0 m=1 gns=0 gcon=1 blockParasiticsBetween="PC
MavD36_13	VON	P1	avC9	vsub	nfetx#20auLvs#20cmhv7sf
+ L=0.18U	W=2.5U
+ AD=1.0492P	AS=0.6344P	PD=5.74U	PS=2.96U
+ wt=2.5e-06 sd=0 sb=4.6e-07 sa=2.56e-06 rf=0 psp=0 par=1 nrs=0.106557 nrd=0.106557 nf=1 mSwitch=0 m=1 gns=0 gcon=1 blockParasiticsBetween="PC
MavD36_14	avC9	P1	VON	vsub	nfetx#20auLvs#20cmhv7sf
+ L=0.18U	W=2.5U
+ AD=0.6344P	AS=1.0492P	PD=2.96U	PS=5.74U
+ wt=2.5e-06 sd=0 sb=2.56e-06 sa=4.6e-07 rf=0 psp=0 par=1 nrs=0.106557 nrd=0.106557 nf=1 mSwitch=0 m=1 gns=0 gcon=1 blockParasiticsBetween="PC
MavD36_15	bias	P5	VON	vsub	nfetx#20auLvs#20cmhv7sf
+ L=0.18U	W=2.5U
+ AD=0.6344P	AS=0.6344P	PD=2.96U	PS=2.96U
+ wt=2.5e-06 sd=0 sb=1.16e-06 sa=1.86e-06 rf=0 psp=0 par=1 nrs=0.106557 nrd=0.106557 nf=1 mSwitch=0 m=1 gns=0 gcon=1 blockParasiticsBetween="PC
MavD36_16	VON	P5	bias	vsub	nfetx#20auLvs#20cmhv7sf
+ L=0.18U	W=2.5U
+ AD=1.0492P	AS=0.6344P	PD=5.74U	PS=2.96U
+ wt=2.5e-06 sd=0 sb=4.6e-07 sa=2.56e-06 rf=0 psp=0 par=1 nrs=0.106557 nrd=0.106557 nf=1 mSwitch=0 m=1 gns=0 gcon=1 blockParasiticsBetween="PC
MavD36_17	avC8	P4	VON	vsub	nfetx#20auLvs#20cmhv7sf
+ L=0.18U	W=2.5U
+ AD=0.6344P	AS=1.0492P	PD=2.96U	PS=5.74U
+ wt=2.5e-06 sd=0 sb=2.56e-06 sa=4.6e-07 rf=0 psp=0 par=1 nrs=0.106557 nrd=0.106557 nf=1 mSwitch=0 m=1 gns=0 gcon=1 blockParasiticsBetween="PC
MavD36_18	VON	P4	avC8	vsub	nfetx#20auLvs#20cmhv7sf
+ L=0.18U	W=2.5U
+ AD=0.6344P	AS=0.6344P	PD=2.96U	PS=2.96U
+ wt=2.5e-06 sd=0 sb=1.86e-06 sa=1.16e-06 rf=0 psp=0 par=1 nrs=0.106557 nrd=0.106557 nf=1 mSwitch=0 m=1 gns=0 gcon=1 blockParasiticsBetween="PC
MavD36_19	avC8	P4	VON	vsub	nfetx#20auLvs#20cmhv7sf
+ L=0.18U	W=2.5U
+ AD=0.6344P	AS=0.6344P	PD=2.96U	PS=2.96U
+ wt=2.5e-06 sd=0 sb=1.16e-06 sa=1.86e-06 rf=0 psp=0 par=1 nrs=0.106557 nrd=0.106557 nf=1 mSwitch=0 m=1 gns=0 gcon=1 blockParasiticsBetween="PC
MavD36_20	VON	P4	avC8	vsub	nfetx#20auLvs#20cmhv7sf
+ L=0.18U	W=2.5U
+ AD=1.0492P	AS=0.6344P	PD=5.74U	PS=2.96U
+ wt=2.5e-06 sd=0 sb=4.6e-07 sa=2.56e-06 rf=0 psp=0 par=1 nrs=0.106557 nrd=0.106557 nf=1 mSwitch=0 m=1 gns=0 gcon=1 blockParasiticsBetween="PC
MavD36_21	VON	P5	bias	vsub	nfetx#20auLvs#20cmhv7sf
+ L=0.18U	W=2.5U
+ AD=0.6344P	AS=0.6344P	PD=2.96U	PS=2.96U
+ wt=2.5e-06 sd=0 sb=1.86e-06 sa=1.16e-06 rf=0 psp=0 par=1 nrs=0.106557 nrd=0.106557 nf=1 mSwitch=0 m=1 gns=0 gcon=1 blockParasiticsBetween="PC
MavD36_22	avC10	P4	VOP	vsub	nfetx#20auLvs#20cmhv7sf
+ L=0.18U	W=2.5U
+ AD=0.6344P	AS=0.6344P	PD=2.96U	PS=2.96U
+ wt=2.5e-06 sd=0 sb=1.16e-06 sa=1.86e-06 rf=0 psp=0 par=1 nrs=0.106557 nrd=0.106557 nf=1 mSwitch=0 m=1 gns=0 gcon=1 blockParasiticsBetween="PC
MavD36_23	VOP	P4	avC10	vsub	nfetx#20auLvs#20cmhv7sf
+ L=0.18U	W=2.5U
+ AD=1.0492P	AS=0.6344P	PD=5.74U	PS=2.96U
+ wt=2.5e-06 sd=0 sb=4.6e-07 sa=2.56e-06 rf=0 psp=0 par=1 nrs=0.106557 nrd=0.106557 nf=1 mSwitch=0 m=1 gns=0 gcon=1 blockParasiticsBetween="PC
MavD36_24	avC4	P5	VOP	vsub	nfetx#20auLvs#20cmhv7sf
+ L=0.18U	W=2.5U
+ AD=0.6344P	AS=1.0492P	PD=2.96U	PS=5.74U
+ wt=2.5e-06 sd=0 sb=2.56e-06 sa=4.6e-07 rf=0 psp=0 par=1 nrs=0.106557 nrd=0.106557 nf=1 mSwitch=0 m=1 gns=0 gcon=1 blockParasiticsBetween="PC
MavD36_25	VOP	P5	avC4	vsub	nfetx#20auLvs#20cmhv7sf
+ L=0.18U	W=2.5U
+ AD=0.6344P	AS=0.6344P	PD=2.96U	PS=2.96U
+ wt=2.5e-06 sd=0 sb=1.86e-06 sa=1.16e-06 rf=0 psp=0 par=1 nrs=0.106557 nrd=0.106557 nf=1 mSwitch=0 m=1 gns=0 gcon=1 blockParasiticsBetween="PC
MavD36_26	avC4	P5	VOP	vsub	nfetx#20auLvs#20cmhv7sf
+ L=0.18U	W=2.5U
+ AD=0.6344P	AS=0.6344P	PD=2.96U	PS=2.96U
+ wt=2.5e-06 sd=0 sb=1.16e-06 sa=1.86e-06 rf=0 psp=0 par=1 nrs=0.106557 nrd=0.106557 nf=1 mSwitch=0 m=1 gns=0 gcon=1 blockParasiticsBetween="PC
MavD36_27	VOP	P5	avC4	vsub	nfetx#20auLvs#20cmhv7sf
+ L=0.18U	W=2.5U
+ AD=1.0492P	AS=0.6344P	PD=5.74U	PS=2.96U
+ wt=2.5e-06 sd=0 sb=4.6e-07 sa=2.56e-06 rf=0 psp=0 par=1 nrs=0.106557 nrd=0.106557 nf=1 mSwitch=0 m=1 gns=0 gcon=1 blockParasiticsBetween="PC
MavD36_28	bias	P5	VON	vsub	nfetx#20auLvs#20cmhv7sf
+ L=0.18U	W=2.5U
+ AD=0.6344P	AS=1.0492P	PD=2.96U	PS=5.74U
+ wt=2.5e-06 sd=0 sb=2.56e-06 sa=4.6e-07 rf=0 psp=0 par=1 nrs=0.106557 nrd=0.106557 nf=1 mSwitch=0 m=1 gns=0 gcon=1 blockParasiticsBetween="PC
MavD36_29	avC9	P1	VOP	vsub	nfetx#20auLvs#20cmhv7sf
+ L=0.18U	W=2.5U
+ AD=0.6344P	AS=0.6344P	PD=2.96U	PS=2.96U
+ wt=2.5e-06 sd=0 sb=1.16e-06 sa=1.86e-06 rf=0 psp=0 par=1 nrs=0.106557 nrd=0.106557 nf=1 mSwitch=0 m=1 gns=0 gcon=1 blockParasiticsBetween="PC
MavD36_30	VOP	P1	avC9	vsub	nfetx#20auLvs#20cmhv7sf
+ L=0.18U	W=2.5U
+ AD=1.0492P	AS=0.6344P	PD=5.74U	PS=2.96U
+ wt=2.5e-06 sd=0 sb=4.6e-07 sa=2.56e-06 rf=0 psp=0 par=1 nrs=0.106557 nrd=0.106557 nf=1 mSwitch=0 m=1 gns=0 gcon=1 blockParasiticsBetween="PC
MavD36_31	avC10	P4	VOP	vsub	nfetx#20auLvs#20cmhv7sf
+ L=0.18U	W=2.5U
+ AD=0.6344P	AS=1.0492P	PD=2.96U	PS=5.74U
+ wt=2.5e-06 sd=0 sb=2.56e-06 sa=4.6e-07 rf=0 psp=0 par=1 nrs=0.106557 nrd=0.106557 nf=1 mSwitch=0 m=1 gns=0 gcon=1 blockParasiticsBetween="PC
MavD36_32	VOP	P4	avC10	vsub	nfetx#20auLvs#20cmhv7sf
+ L=0.18U	W=2.5U
+ AD=0.6344P	AS=0.6344P	PD=2.96U	PS=2.96U
+ wt=2.5e-06 sd=0 sb=1.86e-06 sa=1.16e-06 rf=0 psp=0 par=1 nrs=0.106557 nrd=0.106557 nf=1 mSwitch=0 m=1 gns=0 gcon=1 blockParasiticsBetween="PC
MavD36_33	avC9	P1	VOP	vsub	nfetx#20auLvs#20cmhv7sf
+ L=0.18U	W=2.5U
+ AD=0.6344P	AS=1.0492P	PD=2.96U	PS=5.74U
+ wt=2.5e-06 sd=0 sb=2.56e-06 sa=4.6e-07 rf=0 psp=0 par=1 nrs=0.106557 nrd=0.106557 nf=1 mSwitch=0 m=1 gns=0 gcon=1 blockParasiticsBetween="PC
MavD36_34	VOP	P1	avC9	vsub	nfetx#20auLvs#20cmhv7sf
+ L=0.18U	W=2.5U
+ AD=0.6344P	AS=0.6344P	PD=2.96U	PS=2.96U
+ wt=2.5e-06 sd=0 sb=1.86e-06 sa=1.16e-06 rf=0 psp=0 par=1 nrs=0.106557 nrd=0.106557 nf=1 mSwitch=0 m=1 gns=0 gcon=1 blockParasiticsBetween="PC
MavD36_35	VOP	P2	avC8	vsub	nfetx#20auLvs#20cmhv7sf
+ L=0.18U	W=2.5U
+ AD=1.0492P	AS=0.6344P	PD=5.74U	PS=2.96U
+ wt=2.5e-06 sd=0 sb=4.6e-07 sa=2.56e-06 rf=0 psp=0 par=1 nrs=0.106557 nrd=0.106557 nf=1 mSwitch=0 m=1 gns=0 gcon=1 blockParasiticsBetween="PC
MavD36_36	bias	P3	VOP	vsub	nfetx#20auLvs#20cmhv7sf
+ L=0.18U	W=2.5U
+ AD=0.6344P	AS=1.0492P	PD=2.96U	PS=5.74U
+ wt=2.5e-06 sd=0 sb=2.56e-06 sa=4.6e-07 rf=0 psp=0 par=1 nrs=0.106557 nrd=0.106557 nf=1 mSwitch=0 m=1 gns=0 gcon=1 blockParasiticsBetween="PC
MavD36_37	VOP	P3	bias	vsub	nfetx#20auLvs#20cmhv7sf
+ L=0.18U	W=2.5U
+ AD=0.6344P	AS=0.6344P	PD=2.96U	PS=2.96U
+ wt=2.5e-06 sd=0 sb=1.86e-06 sa=1.16e-06 rf=0 psp=0 par=1 nrs=0.106557 nrd=0.106557 nf=1 mSwitch=0 m=1 gns=0 gcon=1 blockParasiticsBetween="PC
MavD36_38	bias	P3	VOP	vsub	nfetx#20auLvs#20cmhv7sf
+ L=0.18U	W=2.5U
+ AD=0.6344P	AS=0.6344P	PD=2.96U	PS=2.96U
+ wt=2.5e-06 sd=0 sb=1.16e-06 sa=1.86e-06 rf=0 psp=0 par=1 nrs=0.106557 nrd=0.106557 nf=1 mSwitch=0 m=1 gns=0 gcon=1 blockParasiticsBetween="PC
MavD36_39	VOP	P3	bias	vsub	nfetx#20auLvs#20cmhv7sf
+ L=0.18U	W=2.5U
+ AD=1.0492P	AS=0.6344P	PD=5.74U	PS=2.96U
+ wt=2.5e-06 sd=0 sb=4.6e-07 sa=2.56e-06 rf=0 psp=0 par=1 nrs=0.106557 nrd=0.106557 nf=1 mSwitch=0 m=1 gns=0 gcon=1 blockParasiticsBetween="PC
MavD36_40	avC8	P2	VOP	vsub	nfetx#20auLvs#20cmhv7sf
+ L=0.18U	W=2.5U
+ AD=0.6344P	AS=1.0492P	PD=2.96U	PS=5.74U
+ wt=2.5e-06 sd=0 sb=2.56e-06 sa=4.6e-07 rf=0 psp=0 par=1 nrs=0.106557 nrd=0.106557 nf=1 mSwitch=0 m=1 gns=0 gcon=1 blockParasiticsBetween="PC
MavD36_41	VOP	P2	avC8	vsub	nfetx#20auLvs#20cmhv7sf
+ L=0.18U	W=2.5U
+ AD=0.6344P	AS=0.6344P	PD=2.96U	PS=2.96U
+ wt=2.5e-06 sd=0 sb=1.86e-06 sa=1.16e-06 rf=0 psp=0 par=1 nrs=0.106557 nrd=0.106557 nf=1 mSwitch=0 m=1 gns=0 gcon=1 blockParasiticsBetween="PC
MavD36_42	avC8	P2	VOP	vsub	nfetx#20auLvs#20cmhv7sf
+ L=0.18U	W=2.5U
+ AD=0.6344P	AS=0.6344P	PD=2.96U	PS=2.96U
+ wt=2.5e-06 sd=0 sb=1.16e-06 sa=1.86e-06 rf=0 psp=0 par=1 nrs=0.106557 nrd=0.106557 nf=1 mSwitch=0 m=1 gns=0 gcon=1 blockParasiticsBetween="PC
*
*
*       RESISTOR AND CAP/DIODE CARDS
*
RavD120_1	vdda	vdda	 8836.0605
+ s=1 reff=8836.06 pbar=1 par=1 mSwitch=1 m=1 bp=1 blockParasiticsBetween="M1 sub" bb=0
+ $SUB=vdda 
RavD120_2	bias	avC8	 7333.0303
+ s=1 reff=7333.03 pbar=1 par=1 mSwitch=0 m=1 bp=1 blockParasiticsBetween="M1 sub" bb=0
+ $SUB=vdda 
RavD120_3	avC17	avC8	 8836.0605
+ s=1 reff=8836.06 pbar=1 par=1 mSwitch=0 m=1 bp=1 blockParasiticsBetween="M1 sub" bb=0
+ $SUB=vdda 
RavD120_4	avC17	avC9	 8836.0605
+ s=1 reff=8836.06 pbar=1 par=1 mSwitch=0 m=1 bp=1 blockParasiticsBetween="M1 sub" bb=0
+ $SUB=vdda 
RavD120_5	avC18	avC9	 8836.0605
+ s=1 reff=8836.06 pbar=1 par=1 mSwitch=0 m=1 bp=1 blockParasiticsBetween="M1 sub" bb=0
+ $SUB=vdda 
RavD120_6	avC18	avC10	 8836.0605
+ s=1 reff=8836.06 pbar=1 par=1 mSwitch=0 m=1 bp=1 blockParasiticsBetween="M1 sub" bb=0
+ $SUB=vdda 
RavD120_7	avC4	avC10	 7333.0303
+ s=1 reff=7333.03 pbar=1 par=1 mSwitch=0 m=1 bp=1 blockParasiticsBetween="M1 sub" bb=0
+ $SUB=vdda 
RavD120_8	vdda	vdda	 8836.0605
+ s=1 reff=8836.06 pbar=1 par=1 mSwitch=1 m=1 bp=1 blockParasiticsBetween="M1 sub" bb=0
+ $SUB=vdda 
*
*       CAPACITOR CARDS
*
*
C1	P2	P1	4.2087E-15	$X=41.4115 $Y=70.036
C2	P3	P1	2.80642E-16	$X=41.4115 $Y=69.9535
C3	P1	P4	4.21191E-15	$X=41.4125 $Y=70.196
C4	P3	P2	4.39159E-15	$X=41.4115 $Y=69.8755
C5	P1	P5	1.14478E-16	$X=41.4125 $Y=70.274
C6	VON	P1	8.13806E-16	$X=42.0865 $Y=69.9785
C7	P2	P4	1.13749E-16	$X=41.412 $Y=70.113
C8	VOP	P1	8.07201E-16	$X=40.7795 $Y=69.9795
C9	P2	P5	1.14076E-16	$X=41.412 $Y=70.1895
C10	P3	P4	2.70704E-16	$X=41.412 $Y=70.0295
C11	VON	P2	8.628E-16	$X=42.0735 $Y=69.8295
C12	P1	vssa	1.40842E-16	$X=41.935 $Y=70.109
C13	P3	P5	2.71551E-16	$X=41.412 $Y=70.104
C14	VOP	P2	8.49235E-16	$X=40.79 $Y=69.83
C15	bias	P2	1.13073E-17	$X=40.194 $Y=69.1575
C16	P3	VON	1.02848E-15	$X=42.061 $Y=69.681
C17	P4	P5	4.30753E-15	$X=41.413 $Y=70.3555
C18	P3	VOP	1.01937E-15	$X=40.801 $Y=69.6815
C19	P1	avC9	1.58956E-15	$X=41.469 $Y=69.3775
C20	P2	vssa	8.79144E-17	$X=41.9245 $Y=69.9535
C21	avC8	P1	1.00185E-17	$X=40.626 $Y=69.4245
C22	VON	P4	8.13476E-16	$X=42.099 $Y=70.1255
C23	P3	bias	8.34262E-16	$X=40.214 $Y=69.036
C24	VOP	P4	7.99557E-16	$X=40.7685 $Y=70.1265
C25	P5	VON	8.10407E-16	$X=42.1115 $Y=70.273
C26	P3	vssa	1.3023E-16	$X=41.915 $Y=69.7985
C27	bias	P4	1.13073E-17	$X=40.156 $Y=69.3975
C28	P2	avC10	7.94781E-16	$X=42.3045 $Y=69.2715
C29	VOP	P5	8.00355E-16	$X=40.7575 $Y=70.274
C30	P2	avC8	8.01787E-16	$X=40.6375 $Y=69.3055
C31	P5	bias	8.03681E-16	$X=40.1365 $Y=69.5165
C32	P4	vssa	1.75693E-16	$X=41.945 $Y=70.263
C33	VOP	VON	1.87148E-15	$X=41.7635 $Y=67.7765
C34	P3	avC10	2.98574E-17	$X=42.2905 $Y=69.1535
C35	VON	bias	2.8065E-15	$X=38.482 $Y=65.7095
C36	P3	avC9	2.84614E-17	$X=41.4665 $Y=69.144
C37	P5	vssa	1.11161E-15	$X=41.9555 $Y=70.4175
C38	P3	avC8	3.74151E-17	$X=40.6495 $Y=69.1865
C39	VOP	bias	2.80329E-15	$X=33.1515 $Y=65.704
C40	P3	avC4	8.24032E-16	$X=42.918 $Y=69.181
C41	P4	avC10	7.94781E-16	$X=42.333 $Y=69.505
C42	VON	vssa	2.00233E-16	$X=54.5455 $Y=68.4895
C43	VOP	vdda	2.17952E-17	$X=31.114 $Y=66.985
C44	P4	avC8	8.02582E-16	$X=40.6145 $Y=69.5405
C45	VOP	vssa	1.95284E-16	$X=40.019 $Y=68.4905
C46	bias	vdda	5.90078E-15	$X=34.05 $Y=64.828
C47	bias	vssa	7.21938E-16	$X=37.331 $Y=65.731
C48	VON	avC10	1.22177E-15	$X=47.2785 $Y=66.7635
C49	P5	avC4	7.9557E-16	$X=43.022 $Y=69.687
C50	vssa	vdda	2.10743E-15	$X=57.023 $Y=68.261
C51	VON	avC9	1.07379E-15	$X=43.825 $Y=66.805
C52	bias	avC18	1.85641E-16	$X=47.218 $Y=32.527
C53	VON	avC8	1.04149E-15	$X=40.562 $Y=66.865
C54	VOP	avC10	1.16615E-15	$X=42.882 $Y=66.761
C55	bias	avC17	1.85641E-16	$X=34.8935 $Y=32.527
C56	VON	avC4	1.45909E-15	$X=52.6655 $Y=65.9365
C57	VOP	avC9	1.35598E-15	$X=39.57 $Y=66.8025
C58	avC18	vdda	8.79091E-16	$X=47.6855 $Y=31.383
C59	VON	avC3	6.61388E-17	$X=66.7475 $Y=66.579
C60	bias	avC10	2.48651E-16	$X=40.6435 $Y=65.869
C61	VOP	avC8	1.03508E-15	$X=36.0915 $Y=66.8625
C62	avC17	vdda	8.79091E-16	$X=34.931 $Y=31.383
C63	bias	avC9	2.64278E-16	$X=38.3585 $Y=65.9195
C64	VOP	avC4	1.20975E-15	$X=46.4905 $Y=65.9305
C65	avC10	vdda	1.75579E-15	$X=45.8865 $Y=66.321
C66	bias	avC8	3.76454E-15	$X=35.896 $Y=65.931
C67	avC9	vdda	1.74785E-15	$X=41.701 $Y=66.3905
C68	bias	avC4	2.47861E-16	$X=42.321 $Y=65.126
C69	avC10	vssa	3.85644E-16	$X=47.2855 $Y=66.8935
C70	avC8	vdda	1.75923E-15	$X=37.517 $Y=66.4395
C71	avC9	vssa	3.36764E-16	$X=43.477 $Y=66.9345
C72	avC4	vdda	2.60177E-15	$X=52.496 $Y=64.9405
C73	avC8	vssa	1.76433E-16	$X=39.8415 $Y=67.0085
C74	avC4	vssa	2.17325E-15	$X=53.5205 $Y=65.998
C75	avC3	vssa	5.72065E-16	$X=67.262 $Y=66.6065
C76	avC9	avC10	3.8481E-15	$X=43.751 $Y=66.542
C77	avC8	avC10	2.8961E-16	$X=41.721 $Y=66.571
C78	avC10	avC4	4.03119E-15	$X=48.5245 $Y=66.006
C79	avC8	avC9	3.85074E-15	$X=39.6355 $Y=66.602
C80	avC9	avC4	3.22151E-16	$X=45.8385 $Y=66.0575
C81	avC8	avC4	3.33239E-16	$X=43.4345 $Y=66.075
C82	avC4	avC3	3.05465E-16	$X=65.658 $Y=66.349
C83	P1	vsub	1.72389E-15	$X=41.413 $Y=70.1175
C84	P2	vsub	1.56121E-15	$X=41.412 $Y=69.9565
C85	P3	vsub	2.13078E-15	$X=41.412 $Y=69.7965
C86	P4	vsub	1.72668E-15	$X=41.4135 $Y=70.2765
C87	P5	vsub	2.04486E-15	$X=41.414 $Y=70.4365
C88	VON	vsub	1.54461E-15	$X=52.7665 $Y=67.79
C89	VOP	vsub	2.33409E-15	$X=30.689 $Y=67.7855
C90	bias	vsub	1.28493E-15	$X=33.948 $Y=65.057
C91	vdda	vsub	2.05639E-16	$X=43.874 $Y=46.9995
C92	vssa	vsub	8.87911E-16	$X=57.9275 $Y=69.877
C93	avC10	vsub	1.29071E-15	$X=45.908 $Y=66.5135
C94	avC9	vsub	1.21124E-15	$X=41.6875 $Y=66.5755
C95	avC8	vsub	1.16137E-15	$X=37.466 $Y=66.6365
C96	avC4	vsub	2.19412E-15	$X=52.6185 $Y=65.223
C97	avC3	vsub	3.54383E-16	$X=67.53 $Y=66.5125
*
*
.ENDS RDAC
*
