*
*
*
*                       LINUX           Mon Oct  5 14:12:39 2015
*
*
*
*  PROGRAM  advgen
*
*  Name           : advgen - Quantus QRC - (64-bit)
*  Version        : 14.2.2-s209
*  Build Date     : Tue Mar 24 21:40:50 PDT 2015
*
*  HSPICE LIBRARY
*
*
*
*
*       SUBCIRCUIT DEFINITIONS
*
.SUBCKT diodenwx#20auLvs#20cmhv7sf MINUS PLUS
.ENDS
*
.SUBCKT subcx#20auLvs#20cmhv7sf SUBCON sub
.ENDS
*

*
.SUBCKT RDAC P1 P2 P3 P4 P5 VON VOP bias vdda vssa vsub
*
*
*  caps2d version: 10
*
*       SUBCIRCUIT CALLS
*
XavD282_1 vdda vsub diodenwx#20auLvs#20cmhv7sf
+ perim=0.00018204 pcp=5.26096e-14 c=1.57606e-13 area=1.85419e-09
XavD150_1 vssa#2 vsub subcx#20auLvs#20cmhv7sf
+ w=6.05748e-07 p=0.00012768 l=6.32343e-05 a=3.8304e-11
XavD150_2 vssa#3 vsub subcx#20auLvs#20cmhv7sf
+ w=6.05748e-07 p=0.00012768 l=6.32343e-05 a=3.8304e-11
XavD150_3 vssa#5 vsub subcx#20auLvs#20cmhv7sf
+ w=6.17998e-07 p=4.244e-05 l=2.0602e-05 a=1.2732e-11
XavD150_4 vssa#1 vsub subcx#20auLvs#20cmhv7sf
+ w=6.01623e-07 p=0.00044612 l=0.000222458 a=1.33836e-10
*
*       TRANSISTOR CARDS
*
*
MavD36_1	avC4#5	P3#13	VON#25	vsub	nfetx#20auLvs#20cmhv7sf
+ L=0.18U	W=2.5U
+ AD=0.6344P	AS=1.0492P	PD=2.96U	PS=5.74U
+ wt=2.5e-06 sd=0 sb=2.56e-06 sa=4.6e-07 rf=0 psp=0 par=1 nrs=0.106557 nrd=0.106557 nf=1 mSwitch=0 m=1 gns=0 gcon=1 blockParasiticsBetween="PC
MavD36_2	VON#27	P3#12	avC4#5	vsub	nfetx#20auLvs#20cmhv7sf
+ L=0.18U	W=2.5U
+ AD=0.6344P	AS=0.6344P	PD=2.96U	PS=2.96U
+ wt=2.5e-06 sd=0 sb=1.86e-06 sa=1.16e-06 rf=0 psp=0 par=1 nrs=0.106557 nrd=0.106557 nf=1 mSwitch=0 m=1 gns=0 gcon=1 blockParasiticsBetween="PC
MavD36_3	avC4#9	P3#11	VON#27	vsub	nfetx#20auLvs#20cmhv7sf
+ L=0.18U	W=2.5U
+ AD=0.6344P	AS=0.6344P	PD=2.96U	PS=2.96U
+ wt=2.5e-06 sd=0 sb=1.16e-06 sa=1.86e-06 rf=0 psp=0 par=1 nrs=0.106557 nrd=0.106557 nf=1 mSwitch=0 m=1 gns=0 gcon=1 blockParasiticsBetween="PC
MavD36_4	VON#29	P3#10	avC4#9	vsub	nfetx#20auLvs#20cmhv7sf
+ L=0.18U	W=2.5U
+ AD=1.0492P	AS=0.6344P	PD=5.74U	PS=2.96U
+ wt=2.5e-06 sd=0 sb=4.6e-07 sa=2.56e-06 rf=0 psp=0 par=1 nrs=0.106557 nrd=0.106557 nf=1 mSwitch=0 m=1 gns=0 gcon=1 blockParasiticsBetween="PC
MavD36_5	avC3#4	avC4#18	avC4#14	vsub
+ nfetx#20auLvs#20cmhv7sf	L=1U	W=2U
+ AD=0.8342P	AS=0.8342P	PD=4.74U	PS=4.74U
+ wt=2e-06 sd=0 sb=4.6e-07 sa=4.6e-07 rf=0 psp=0 par=1 nrs=0.134021 nrd=0.134021 nf=1 mSwitch=0 m=1 gns=0 gcon=1 blockParasiticsBetween="PC
MavD36_6	vssa#7	avC3#5	avC3#2	vsub	nfetx#20auLvs#20cmhv7sf
+ L=1U	W=2U
+ AD=0.8342P	AS=0.8342P	PD=4.74U	PS=4.74U
+ wt=2e-06 sd=0 sb=4.6e-07 sa=4.6e-07 rf=0 psp=0 par=1 nrs=0.134021 nrd=0.134021 nf=1 mSwitch=0 m=1 gns=0 gcon=1 blockParasiticsBetween="PC
MavD36_7	avC10#5	P2#13	VON#19	vsub	nfetx#20auLvs#20cmhv7sf
+ L=0.18U	W=2.5U
+ AD=0.6344P	AS=1.0492P	PD=2.96U	PS=5.74U
+ wt=2.5e-06 sd=0 sb=2.56e-06 sa=4.6e-07 rf=0 psp=0 par=1 nrs=0.106557 nrd=0.106557 nf=1 mSwitch=0 m=1 gns=0 gcon=1 blockParasiticsBetween="PC
MavD36_8	VON#21	P2#12	avC10#5	vsub	nfetx#20auLvs#20cmhv7sf
+ L=0.18U	W=2.5U
+ AD=0.6344P	AS=0.6344P	PD=2.96U	PS=2.96U
+ wt=2.5e-06 sd=0 sb=1.86e-06 sa=1.16e-06 rf=0 psp=0 par=1 nrs=0.106557 nrd=0.106557 nf=1 mSwitch=0 m=1 gns=0 gcon=1 blockParasiticsBetween="PC
MavD36_9	avC10#10	P2#11	VON#21	vsub	nfetx#20auLvs#20cmhv7sf
+ L=0.18U	W=2.5U
+ AD=0.6344P	AS=0.6344P	PD=2.96U	PS=2.96U
+ wt=2.5e-06 sd=0 sb=1.16e-06 sa=1.86e-06 rf=0 psp=0 par=1 nrs=0.106557 nrd=0.106557 nf=1 mSwitch=0 m=1 gns=0 gcon=1 blockParasiticsBetween="PC
MavD36_10	VON#23	P2#10	avC10#10	vsub	nfetx#20auLvs#20cmhv7sf
+ L=0.18U	W=2.5U
+ AD=1.0492P	AS=0.6344P	PD=5.74U	PS=2.96U
+ wt=2.5e-06 sd=0 sb=4.6e-07 sa=2.56e-06 rf=0 psp=0 par=1 nrs=0.106557 nrd=0.106557 nf=1 mSwitch=0 m=1 gns=0 gcon=1 blockParasiticsBetween="PC
MavD36_11	VON#15	P1#12	avC9#8	vsub	nfetx#20auLvs#20cmhv7sf
+ L=0.18U	W=2.5U
+ AD=0.6344P	AS=0.6344P	PD=2.96U	PS=2.96U
+ wt=2.5e-06 sd=0 sb=1.86e-06 sa=1.16e-06 rf=0 psp=0 par=1 nrs=0.106557 nrd=0.106557 nf=1 mSwitch=0 m=1 gns=0 gcon=1 blockParasiticsBetween="PC
MavD36_12	avC9#10	P1#11	VON#15	vsub	nfetx#20auLvs#20cmhv7sf
+ L=0.18U	W=2.5U
+ AD=0.6344P	AS=0.6344P	PD=2.96U	PS=2.96U
+ wt=2.5e-06 sd=0 sb=1.16e-06 sa=1.86e-06 rf=0 psp=0 par=1 nrs=0.106557 nrd=0.106557 nf=1 mSwitch=0 m=1 gns=0 gcon=1 blockParasiticsBetween="PC
MavD36_13	VON#17	P1#10	avC9#10	vsub	nfetx#20auLvs#20cmhv7sf
+ L=0.18U	W=2.5U
+ AD=1.0492P	AS=0.6344P	PD=5.74U	PS=2.96U
+ wt=2.5e-06 sd=0 sb=4.6e-07 sa=2.56e-06 rf=0 psp=0 par=1 nrs=0.106557 nrd=0.106557 nf=1 mSwitch=0 m=1 gns=0 gcon=1 blockParasiticsBetween="PC
MavD36_14	avC9#8	P1#13	VON#13	vsub	nfetx#20auLvs#20cmhv7sf
+ L=0.18U	W=2.5U
+ AD=0.6344P	AS=1.0492P	PD=2.96U	PS=5.74U
+ wt=2.5e-06 sd=0 sb=2.56e-06 sa=4.6e-07 rf=0 psp=0 par=1 nrs=0.106557 nrd=0.106557 nf=1 mSwitch=0 m=1 gns=0 gcon=1 blockParasiticsBetween="PC
MavD36_15	bias#10	P5#11	VON#3	vsub	nfetx#20auLvs#20cmhv7sf
+ L=0.18U	W=2.5U
+ AD=0.6344P	AS=0.6344P	PD=2.96U	PS=2.96U
+ wt=2.5e-06 sd=0 sb=1.16e-06 sa=1.86e-06 rf=0 psp=0 par=1 nrs=0.106557 nrd=0.106557 nf=1 mSwitch=0 m=1 gns=0 gcon=1 blockParasiticsBetween="PC
MavD36_16	VON#5	P5#10	bias#10	vsub	nfetx#20auLvs#20cmhv7sf
+ L=0.18U	W=2.5U
+ AD=1.0492P	AS=0.6344P	PD=5.74U	PS=2.96U
+ wt=2.5e-06 sd=0 sb=4.6e-07 sa=2.56e-06 rf=0 psp=0 par=1 nrs=0.106557 nrd=0.106557 nf=1 mSwitch=0 m=1 gns=0 gcon=1 blockParasiticsBetween="PC
MavD36_17	avC8#8	P4#14	VON#7	vsub	nfetx#20auLvs#20cmhv7sf
+ L=0.18U	W=2.5U
+ AD=0.6344P	AS=1.0492P	PD=2.96U	PS=5.74U
+ wt=2.5e-06 sd=0 sb=2.56e-06 sa=4.6e-07 rf=0 psp=0 par=1 nrs=0.106557 nrd=0.106557 nf=1 mSwitch=0 m=1 gns=0 gcon=1 blockParasiticsBetween="PC
MavD36_18	VON#9	P4#13	avC8#8	vsub	nfetx#20auLvs#20cmhv7sf
+ L=0.18U	W=2.5U
+ AD=0.6344P	AS=0.6344P	PD=2.96U	PS=2.96U
+ wt=2.5e-06 sd=0 sb=1.86e-06 sa=1.16e-06 rf=0 psp=0 par=1 nrs=0.106557 nrd=0.106557 nf=1 mSwitch=0 m=1 gns=0 gcon=1 blockParasiticsBetween="PC
MavD36_19	avC8#11	P4#12	VON#9	vsub	nfetx#20auLvs#20cmhv7sf
+ L=0.18U	W=2.5U
+ AD=0.6344P	AS=0.6344P	PD=2.96U	PS=2.96U
+ wt=2.5e-06 sd=0 sb=1.16e-06 sa=1.86e-06 rf=0 psp=0 par=1 nrs=0.106557 nrd=0.106557 nf=1 mSwitch=0 m=1 gns=0 gcon=1 blockParasiticsBetween="PC
MavD36_20	VON#11	P4#11	avC8#11	vsub	nfetx#20auLvs#20cmhv7sf
+ L=0.18U	W=2.5U
+ AD=1.0492P	AS=0.6344P	PD=5.74U	PS=2.96U
+ wt=2.5e-06 sd=0 sb=4.6e-07 sa=2.56e-06 rf=0 psp=0 par=1 nrs=0.106557 nrd=0.106557 nf=1 mSwitch=0 m=1 gns=0 gcon=1 blockParasiticsBetween="PC
MavD36_21	VON#3	P5#12	bias#7	vsub	nfetx#20auLvs#20cmhv7sf
+ L=0.18U	W=2.5U
+ AD=0.6344P	AS=0.6344P	PD=2.96U	PS=2.96U
+ wt=2.5e-06 sd=0 sb=1.86e-06 sa=1.16e-06 rf=0 psp=0 par=1 nrs=0.106557 nrd=0.106557 nf=1 mSwitch=0 m=1 gns=0 gcon=1 blockParasiticsBetween="PC
MavD36_22	avC10#3	P4#7	VOP#21	vsub	nfetx#20auLvs#20cmhv7sf
+ L=0.18U	W=2.5U
+ AD=0.6344P	AS=0.6344P	PD=2.96U	PS=2.96U
+ wt=2.5e-06 sd=0 sb=1.16e-06 sa=1.86e-06 rf=0 psp=0 par=1 nrs=0.106557 nrd=0.106557 nf=1 mSwitch=0 m=1 gns=0 gcon=1 blockParasiticsBetween="PC
MavD36_23	VOP#23	P4#6	avC10#3	vsub	nfetx#20auLvs#20cmhv7sf
+ L=0.18U	W=2.5U
+ AD=1.0492P	AS=0.6344P	PD=5.74U	PS=2.96U
+ wt=2.5e-06 sd=0 sb=4.6e-07 sa=2.56e-06 rf=0 psp=0 par=1 nrs=0.106557 nrd=0.106557 nf=1 mSwitch=0 m=1 gns=0 gcon=1 blockParasiticsBetween="PC
MavD36_24	avC4	P5#9	VOP#25	vsub	nfetx#20auLvs#20cmhv7sf
+ L=0.18U	W=2.5U
+ AD=0.6344P	AS=1.0492P	PD=2.96U	PS=5.74U
+ wt=2.5e-06 sd=0 sb=2.56e-06 sa=4.6e-07 rf=0 psp=0 par=1 nrs=0.106557 nrd=0.106557 nf=1 mSwitch=0 m=1 gns=0 gcon=1 blockParasiticsBetween="PC
MavD36_25	VOP#27	P5#8	avC4	vsub	nfetx#20auLvs#20cmhv7sf
+ L=0.18U	W=2.5U
+ AD=0.6344P	AS=0.6344P	PD=2.96U	PS=2.96U
+ wt=2.5e-06 sd=0 sb=1.86e-06 sa=1.16e-06 rf=0 psp=0 par=1 nrs=0.106557 nrd=0.106557 nf=1 mSwitch=0 m=1 gns=0 gcon=1 blockParasiticsBetween="PC
MavD36_26	avC4#3	P5#7	VOP#27	vsub	nfetx#20auLvs#20cmhv7sf
+ L=0.18U	W=2.5U
+ AD=0.6344P	AS=0.6344P	PD=2.96U	PS=2.96U
+ wt=2.5e-06 sd=0 sb=1.16e-06 sa=1.86e-06 rf=0 psp=0 par=1 nrs=0.106557 nrd=0.106557 nf=1 mSwitch=0 m=1 gns=0 gcon=1 blockParasiticsBetween="PC
MavD36_27	VOP#29	P5#6	avC4#3	vsub	nfetx#20auLvs#20cmhv7sf
+ L=0.18U	W=2.5U
+ AD=1.0492P	AS=0.6344P	PD=5.74U	PS=2.96U
+ wt=2.5e-06 sd=0 sb=4.6e-07 sa=2.56e-06 rf=0 psp=0 par=1 nrs=0.106557 nrd=0.106557 nf=1 mSwitch=0 m=1 gns=0 gcon=1 blockParasiticsBetween="PC
MavD36_28	bias#7	P5#13	VON#1	vsub	nfetx#20auLvs#20cmhv7sf
+ L=0.18U	W=2.5U
+ AD=0.6344P	AS=1.0492P	PD=2.96U	PS=5.74U
+ wt=2.5e-06 sd=0 sb=2.56e-06 sa=4.6e-07 rf=0 psp=0 par=1 nrs=0.106557 nrd=0.106557 nf=1 mSwitch=0 m=1 gns=0 gcon=1 blockParasiticsBetween="PC
MavD36_29	avC9#3	P1#5	VOP#15	vsub	nfetx#20auLvs#20cmhv7sf
+ L=0.18U	W=2.5U
+ AD=0.6344P	AS=0.6344P	PD=2.96U	PS=2.96U
+ wt=2.5e-06 sd=0 sb=1.16e-06 sa=1.86e-06 rf=0 psp=0 par=1 nrs=0.106557 nrd=0.106557 nf=1 mSwitch=0 m=1 gns=0 gcon=1 blockParasiticsBetween="PC
MavD36_30	VOP#17	P1#4	avC9#3	vsub	nfetx#20auLvs#20cmhv7sf
+ L=0.18U	W=2.5U
+ AD=1.0492P	AS=0.6344P	PD=5.74U	PS=2.96U
+ wt=2.5e-06 sd=0 sb=4.6e-07 sa=2.56e-06 rf=0 psp=0 par=1 nrs=0.106557 nrd=0.106557 nf=1 mSwitch=0 m=1 gns=0 gcon=1 blockParasiticsBetween="PC
MavD36_31	avC10	P4#9	VOP#19	vsub	nfetx#20auLvs#20cmhv7sf
+ L=0.18U	W=2.5U
+ AD=0.6344P	AS=1.0492P	PD=2.96U	PS=5.74U
+ wt=2.5e-06 sd=0 sb=2.56e-06 sa=4.6e-07 rf=0 psp=0 par=1 nrs=0.106557 nrd=0.106557 nf=1 mSwitch=0 m=1 gns=0 gcon=1 blockParasiticsBetween="PC
MavD36_32	VOP#21	P4#8	avC10	vsub	nfetx#20auLvs#20cmhv7sf
+ L=0.18U	W=2.5U
+ AD=0.6344P	AS=0.6344P	PD=2.96U	PS=2.96U
+ wt=2.5e-06 sd=0 sb=1.86e-06 sa=1.16e-06 rf=0 psp=0 par=1 nrs=0.106557 nrd=0.106557 nf=1 mSwitch=0 m=1 gns=0 gcon=1 blockParasiticsBetween="PC
MavD36_33	avC9	P1#7	VOP#13	vsub	nfetx#20auLvs#20cmhv7sf
+ L=0.18U	W=2.5U
+ AD=0.6344P	AS=1.0492P	PD=2.96U	PS=5.74U
+ wt=2.5e-06 sd=0 sb=2.56e-06 sa=4.6e-07 rf=0 psp=0 par=1 nrs=0.106557 nrd=0.106557 nf=1 mSwitch=0 m=1 gns=0 gcon=1 blockParasiticsBetween="PC
MavD36_34	VOP#15	P1#6	avC9	vsub	nfetx#20auLvs#20cmhv7sf
+ L=0.18U	W=2.5U
+ AD=0.6344P	AS=0.6344P	PD=2.96U	PS=2.96U
+ wt=2.5e-06 sd=0 sb=1.86e-06 sa=1.16e-06 rf=0 psp=0 par=1 nrs=0.106557 nrd=0.106557 nf=1 mSwitch=0 m=1 gns=0 gcon=1 blockParasiticsBetween="PC
MavD36_35	VOP#11	P2#4	avC8#3	vsub	nfetx#20auLvs#20cmhv7sf
+ L=0.18U	W=2.5U
+ AD=1.0492P	AS=0.6344P	PD=5.74U	PS=2.96U
+ wt=2.5e-06 sd=0 sb=4.6e-07 sa=2.56e-06 rf=0 psp=0 par=1 nrs=0.106557 nrd=0.106557 nf=1 mSwitch=0 m=1 gns=0 gcon=1 blockParasiticsBetween="PC
MavD36_36	bias#1	P3#7	VOP#1	vsub	nfetx#20auLvs#20cmhv7sf
+ L=0.18U	W=2.5U
+ AD=0.6344P	AS=1.0492P	PD=2.96U	PS=5.74U
+ wt=2.5e-06 sd=0 sb=2.56e-06 sa=4.6e-07 rf=0 psp=0 par=1 nrs=0.106557 nrd=0.106557 nf=1 mSwitch=0 m=1 gns=0 gcon=1 blockParasiticsBetween="PC
MavD36_37	VOP#3	P3#6	bias#1	vsub	nfetx#20auLvs#20cmhv7sf
+ L=0.18U	W=2.5U
+ AD=0.6344P	AS=0.6344P	PD=2.96U	PS=2.96U
+ wt=2.5e-06 sd=0 sb=1.86e-06 sa=1.16e-06 rf=0 psp=0 par=1 nrs=0.106557 nrd=0.106557 nf=1 mSwitch=0 m=1 gns=0 gcon=1 blockParasiticsBetween="PC
MavD36_38	bias#3	P3#5	VOP#3	vsub	nfetx#20auLvs#20cmhv7sf
+ L=0.18U	W=2.5U
+ AD=0.6344P	AS=0.6344P	PD=2.96U	PS=2.96U
+ wt=2.5e-06 sd=0 sb=1.16e-06 sa=1.86e-06 rf=0 psp=0 par=1 nrs=0.106557 nrd=0.106557 nf=1 mSwitch=0 m=1 gns=0 gcon=1 blockParasiticsBetween="PC
MavD36_39	VOP#5	P3#4	bias#3	vsub	nfetx#20auLvs#20cmhv7sf
+ L=0.18U	W=2.5U
+ AD=1.0492P	AS=0.6344P	PD=5.74U	PS=2.96U
+ wt=2.5e-06 sd=0 sb=4.6e-07 sa=2.56e-06 rf=0 psp=0 par=1 nrs=0.106557 nrd=0.106557 nf=1 mSwitch=0 m=1 gns=0 gcon=1 blockParasiticsBetween="PC
MavD36_40	avC8	P2#7	VOP#7	vsub	nfetx#20auLvs#20cmhv7sf
+ L=0.18U	W=2.5U
+ AD=0.6344P	AS=1.0492P	PD=2.96U	PS=5.74U
+ wt=2.5e-06 sd=0 sb=2.56e-06 sa=4.6e-07 rf=0 psp=0 par=1 nrs=0.106557 nrd=0.106557 nf=1 mSwitch=0 m=1 gns=0 gcon=1 blockParasiticsBetween="PC
MavD36_41	VOP#9	P2#6	avC8	vsub	nfetx#20auLvs#20cmhv7sf
+ L=0.18U	W=2.5U
+ AD=0.6344P	AS=0.6344P	PD=2.96U	PS=2.96U
+ wt=2.5e-06 sd=0 sb=1.86e-06 sa=1.16e-06 rf=0 psp=0 par=1 nrs=0.106557 nrd=0.106557 nf=1 mSwitch=0 m=1 gns=0 gcon=1 blockParasiticsBetween="PC
MavD36_42	avC8#3	P2#5	VOP#9	vsub	nfetx#20auLvs#20cmhv7sf
+ L=0.18U	W=2.5U
+ AD=0.6344P	AS=0.6344P	PD=2.96U	PS=2.96U
+ wt=2.5e-06 sd=0 sb=1.16e-06 sa=1.86e-06 rf=0 psp=0 par=1 nrs=0.106557 nrd=0.106557 nf=1 mSwitch=0 m=1 gns=0 gcon=1 blockParasiticsBetween="PC
*
*
*       CANONICAL RESISTOR AND CAP/DIODE CARDS
*
RavD120_1	vdda#1	vdda#2	 8836.0605
+ s=1 reff=8836.06 pbar=1 par=1 mSwitch=1 m=1 bp=1 blockParasiticsBetween="M1 sub" bb=0
+ $SUB=vdda 
RavD120_2	bias#5	avC8#6	 7333.0303
+ s=1 reff=7333.03 pbar=1 par=1 mSwitch=0 m=1 bp=1 blockParasiticsBetween="M1 sub" bb=0
+ $SUB=vdda 
RavD120_3	avC17#2	avC8#7	 8836.0605
+ s=1 reff=8836.06 pbar=1 par=1 mSwitch=0 m=1 bp=1 blockParasiticsBetween="M1 sub" bb=0
+ $SUB=vdda 
RavD120_4	avC17	avC9#7	 8836.0605
+ s=1 reff=8836.06 pbar=1 par=1 mSwitch=0 m=1 bp=1 blockParasiticsBetween="M1 sub" bb=0
+ $SUB=vdda 
RavD120_5	avC18#2	avC9#5	 8836.0605
+ s=1 reff=8836.06 pbar=1 par=1 mSwitch=0 m=1 bp=1 blockParasiticsBetween="M1 sub" bb=0
+ $SUB=vdda 
RavD120_6	avC18	avC10#9	 8836.0605
+ s=1 reff=8836.06 pbar=1 par=1 mSwitch=0 m=1 bp=1 blockParasiticsBetween="M1 sub" bb=0
+ $SUB=vdda 
RavD120_7	avC4#7	avC10#7	 7333.0303
+ s=1 reff=7333.03 pbar=1 par=1 mSwitch=0 m=1 bp=1 blockParasiticsBetween="M1 sub" bb=0
+ $SUB=vdda 
RavD120_8	vdda#3	vdda#4	 8836.0605
+ s=1 reff=8836.06 pbar=1 par=1 mSwitch=1 m=1 bp=1 blockParasiticsBetween="M1 sub" bb=0
+ $SUB=vdda 
*
*       PARASITIC RESISTOR AND CAP/DIODE CARDS
*
Rc1	VOP	VOP#32	    7.2565	$M4	$X=55.1295 $Y=59.72
Rc2	VON	VON#32	    5.9500	$M4	$X=71.095 $Y=60.8
Rd1	avC8#10	avC8#13	    2.5767	$M3
+ $X=28.54 $Y=59.95
Rd2	VOP#30	VOP#32	    1.5935	$M3	$X=38.83 $Y=65.83
Rd3	avC9#12	avC9#13	    2.7339	$M3
+ $X=41.3 $Y=59.675
Rd4	VON#2	VON#32	    1.5935	$M3	$X=44.63 $Y=65.83
Rd5	avC10#12	avC10#13	    2.3637	$M3
+ $X=54.05 $Y=59.39
Rd6	P5#14	P5#5	    3.0863	$M3	$X=41.73 $Y=72.59
Rd7	P5#5	P5	    7.0696	$M3	$X=27.58 $Y=72.59
Rd8	P4#10	P4#5	    5.5697	$M3	$X=41.73 $Y=72.03
Rd9	P4#5	P4	    5.8243	$M3	$X=25.855 $Y=72.03
Rd10	P1#14	P1#3	    8.0531	$M3	$X=41.73 $Y=71.47
Rd11	P1#3	P1	    4.5862	$M3	$X=24.12 $Y=71.47
Rd12	P2#14	P2#3	   10.5365	$M3	$X=41.73 $Y=70.91
Rd13	P2#3	P2	    3.3445	$M3	$X=22.385 $Y=70.91
Rd14	P3#14	P3#3	   13.0198	$M3	$X=41.73 $Y=70.35
Rd15	P3#3	P3	    2.1064	$M3	$X=20.655 $Y=70.35
Rd16	avC4#19	avC4#24	    6.1194	$M3
+ $X=60.485 $Y=34.94
Rd17	avC4#24	avC4#22	    2.0574	$M3
+ $X=62.605 $Y=62.92
Rd18	avC4#20	avC4#24	    0.7967	$M3
+ $X=61.62 $Y=63.03
Rd19	bias	bias#13	   10.5561	$M3	$X=46.8095 $Y=29.55
Rd20	bias#13	bias#12	    5.7491	$M3
+ $X=21.48 $Y=50.15
Rd21	bias#13	bias#9	    0.6940	$M3	$X=22.37 $Y=34.92
Re1	P3#3	P3#1	    3.4285	$M2	$X=23.59 $Y=69.965
Re2	bias#5	bias#9	    0.4683	$M2	$X=24.55 $Y=34.93
Re3	bias#9	bias#6	8.760E-03	$M2	$X=24.55 $Y=34.93
Re4	P2#3	P2#1	    3.6295	$M2	$X=27.05 $Y=70.245
Re5	avC8#5	avC8#10	    0.5312	$M2	$X=28.55 $Y=54.91
Re6	P1#3	P1#1	    3.8304	$M2	$X=30.51 $Y=70.525
Re7	P4#5	P4#1	    4.0314	$M2	$X=33.97 $Y=70.805
Re8	P5#5	P5#1	    4.2324	$M2	$X=37.43 $Y=71.085
Re10	VOP#30	VOP#28	    0.5024	$M2	$X=37.7 $Y=65.83
Re11	VOP#28	VOP#26	    0.5024	$M2	$X=36.73 $Y=65.83
Re12	VOP#26	VOP#24	    0.2369	$M2	$X=35.7 $Y=65.83
Re13	VOP#24	VOP#22	    0.5024	$M2	$X=34.67 $Y=65.83
Re14	VOP#22	VOP#20	    0.5024	$M2	$X=33.27 $Y=65.83
Re15	VOP#20	VOP#18	    0.2369	$M2	$X=32.24 $Y=65.83
Re16	VOP#18	VOP#16	    0.5024	$M2	$X=31.21 $Y=65.83
Re17	VOP#16	VOP#14	    0.5024	$M2	$X=29.81 $Y=65.83
Re18	VOP#14	VOP#12	    0.2369	$M2	$X=28.78 $Y=65.83
Re19	VOP#12	VOP#10	    0.5024	$M2	$X=27.75 $Y=65.83
Re20	VOP#10	VOP#8	    0.5024	$M2	$X=26.35 $Y=65.83
Re21	VOP#8	VOP#6	    0.2369	$M2	$X=25.32 $Y=65.83
Re22	VOP#6	VOP#4	    0.5024	$M2	$X=24.29 $Y=65.83
Re23	VOP#4	VOP#2	    0.5024	$M2	$X=22.89 $Y=65.83
Re24	avC9#6	avC9#12	    0.2656	$M2	$X=41.31 $Y=54.92
Re25	P5#14	P5#3	    4.2324	$M2	$X=46.03 $Y=71.085
Re26	P4#10	P4#3	    4.0314	$M2	$X=49.49 $Y=70.805
Re27	P1#14	P1#8	    3.8304	$M2	$X=52.95 $Y=70.525
Re28	avC10#8	avC10#12	    0.5312	$M2
+ $X=54.07 $Y=54.91
Re29	P2#14	P2#8	    3.6295	$M2	$X=56.41 $Y=70.245
Re30	avC4#7	avC4#19	    0.4683	$M2	$X=58.07 $Y=34.93
Re31	avC4#19	avC4#8	8.760E-03	$M2	$X=58.07 $Y=34.93
Re32	P3#14	P3#8	    3.4285	$M2	$X=59.87 $Y=69.965
Re33	VON#30	VON#28	    0.5024	$M2	$X=60.57 $Y=65.83
Re34	VON#28	VON#26	    0.5024	$M2	$X=59.17 $Y=65.83
Re35	VON#26	VON#24	    0.2369	$M2	$X=58.14 $Y=65.83
Re36	VON#24	VON#22	    0.5024	$M2	$X=57.11 $Y=65.83
Re37	VON#22	VON#20	    0.5024	$M2	$X=55.71 $Y=65.83
Re38	VON#20	VON#18	    0.2369	$M2	$X=54.68 $Y=65.83
Re39	VON#18	VON#16	    0.5024	$M2	$X=53.65 $Y=65.83
Re40	VON#16	VON#14	    0.5024	$M2	$X=52.25 $Y=65.83
Re41	VON#14	VON#12	    0.2369	$M2	$X=51.22 $Y=65.83
Re42	VON#12	VON#10	    0.5024	$M2	$X=50.19 $Y=65.83
Re43	VON#10	VON#8	    0.5024	$M2	$X=48.79 $Y=65.83
Re44	VON#8	VON#6	    0.2369	$M2	$X=47.76 $Y=65.83
Re45	VON#6	VON#4	    0.5024	$M2	$X=46.73 $Y=65.83
Re46	VON#4	VON#2	    0.5024	$M2	$X=45.76 $Y=65.83
Re48	avC8#12	avC8#9	    0.5024	$M2	$X=49.49 $Y=64.71
Re49	avC8#9	avC8#13	    7.2600	$M2	$X=39.105 $Y=64.71
Re50	avC8#13	avC8#4	    0.2907	$M2	$X=28.56 $Y=64.71
Re51	avC8#4	avC8#2	    0.5024	$M2	$X=27.025 $Y=64.71
Re52	avC9#11	avC9#9	    0.5024	$M2	$X=52.95 $Y=64.15
Re53	avC9#9	avC9#13	    3.9476	$M2	$X=47.18 $Y=64.15
Re54	avC9#13	avC9#4	    3.6031	$M2	$X=35.8 $Y=64.15
Re55	avC9#4	avC9#2	    0.5024	$M2	$X=30.51 $Y=64.15
Re56	avC10#11	avC10#6	    0.5024	$M2
+ $X=56.41 $Y=63.59
Re57	avC10#6	avC10#13	    0.5670	$M2
+ $X=55.35 $Y=63.59
Re58	avC10#13	avC10#4	    6.9836	$M2
+ $X=43.97 $Y=63.59
Re59	avC10#4	avC10#2	    0.5024	$M2
+ $X=33.97 $Y=63.59
Re60	bias#11	bias#8	    0.5024	$M2	$X=46.03 $Y=65.27
Re61	bias#8	bias#4	    7.5506	$M2	$X=34.81 $Y=65.27
Re62	bias#4	bias#2	    0.5024	$M2	$X=23.59 $Y=65.27
Re63	bias#2	bias#12	    1.2992	$M2	$X=22.62 $Y=65.27
Re64	avC4#20	avC4#10	    0.3768	$M2
+ $X=61.525 $Y=63.03
Re65	avC4#10	avC4#6	    0.5024	$M2	$X=59.87 $Y=63.03
Re66	avC4#6	avC4#4	    7.5506	$M2	$X=48.65 $Y=63.03
Re67	avC4#4	avC4#2	    0.5024	$M2	$X=37.43 $Y=63.03
Re68	avC4#12	avC4#21	   32.2307	$M2
+ $X=65.186 $Y=67.0985
Re69	avC4#21	avC4#22	    0.1005	$M2
+ $X=65.24 $Y=66.48
Re70	avC4#22	avC4#23	    0.2979	$M2
+ $X=65.24 $Y=66.48
Re71	avC4#23	avC4#17	    3.8834	$M2
+ $X=65.2495 $Y=65.64
Re72	avC4#13	avC4#21	    1.1898	$M2
+ $X=65.25 $Y=66.76
Re73	avC4#16	avC4#23	   32.0333	$M2
+ $X=65.1345 $Y=65.65
Re74	vdda#9	vdda#10	    3.7416	$M2	$X=71.59 $Y=57.282
Re75	vdda#10	vdda	6.294E-02	$M2	$X=71.324 $Y=56.946
Re76	vdda	vdda#11	3.555E-02	$M2	$X=71.59 $Y=56.452
Re77	vdda#11	vdda#6	    3.7186	$M2	$X=70.6395 $Y=55.95
Re78	vdda#8	vdda#10	    1.6569	$M2	$X=70.64 $Y=57.07
Re79	vdda#7	vdda#11	   48.0500	$M2	$X=70.7595 $Y=55.96
Rf_1_1	vdda#1	vdda#2	    7.7236	$M1	$X=16.55 $Y=43.06
Rf_1_2	VOP#1	VOP#2	    7.3901	$M1	$X=22.19 $Y=66.465
Rf_1_3	bias#1	bias#2	    7.5813	$M1	$X=22.89 $Y=66.185
Rf_1_4	VOP#3	VOP#4	    7.3901	$M1	$X=23.59 $Y=66.465
Rf_1_5	bias#3	bias#4	    7.5813	$M1	$X=24.29 $Y=66.185
Rf_1_6	P3#1	P3#2	    4.5211	$M1	$X=23.59 $Y=69.58
Rf_1_7	VOP#5	VOP#6	    7.3901	$M1	$X=24.99 $Y=66.465
Rf_1_8	VOP#7	VOP#8	    7.3901	$M1	$X=25.65 $Y=66.465
Rf_1_9	bias#5	bias#6	    0.6225	$M1	$X=24.55 $Y=34.63
Rf_1_10	avC8	avC8#2	    7.7725	$M1	$X=26.35 $Y=65.905
Rf_1_11	VOP#9	VOP#10	    7.3901	$M1	$X=27.05 $Y=66.465
Rf_1_12	avC8#3	avC8#4	    7.7725	$M1	$X=27.75 $Y=65.905
Rf_1_13	P2#1	P2#2	    4.5211	$M1	$X=27.05 $Y=69.58
Rf_1_14	VOP#11	VOP#12	    7.3901	$M1	$X=28.45 $Y=66.465
Rf_1_15	VOP#13	VOP#14	    7.3901	$M1	$X=29.11 $Y=66.465
Rf_1_16	avC9	avC9#2	    7.9637	$M1	$X=29.81 $Y=65.625
Rf_1_17	avC8#5	avC8#6	    0.2126	$M1	$X=26.781 $Y=54.745
Rf_1_18	avC8#5	avC8#7	    0.1939	$M1	$X=30.3195 $Y=54.765
Rf_1_19	VOP#15	VOP#16	    7.3901	$M1	$X=30.51 $Y=66.465
Rf_1_20	avC9#3	avC9#4	    7.9637	$M1	$X=31.21 $Y=65.625
Rf_1_21	P1#1	P1#2	    4.5211	$M1	$X=30.51 $Y=69.58
Rf_1_22	VOP#17	VOP#18	    7.3901	$M1	$X=31.91 $Y=66.465
Rf_1_23	VOP#19	VOP#20	    7.3901	$M1	$X=32.57 $Y=66.465
Rf_1_24	avC10	avC10#2	    8.1549	$M1	$X=33.27 $Y=65.345
Rf_1_25	VOP#21	VOP#22	    7.3901	$M1	$X=33.97 $Y=66.465
Rf_1_26	avC10#3	avC10#4	    8.1549	$M1
+ $X=34.67 $Y=65.345
Rf_1_27	P4#1	P4#2	    4.5211	$M1	$X=33.97 $Y=69.58
Rf_1_28	avC17	avC17#2	    0.1057	$M1	$X=34.93 $Y=31.38
Rf_1_29	VOP#23	VOP#24	    7.3901	$M1	$X=35.37 $Y=66.465
Rf_1_30	VOP#25	VOP#26	    7.3901	$M1	$X=36.03 $Y=66.465
Rf_1_31	avC4	avC4#2	    8.3462	$M1	$X=36.73 $Y=65.065
Rf_1_32	VOP#27	VOP#28	    7.3901	$M1	$X=37.43 $Y=66.465
Rf_1_33	avC4#3	avC4#4	    8.3462	$M1	$X=38.13 $Y=65.065
Rf_1_34	P5#1	P5#2	    4.5211	$M1	$X=37.43 $Y=69.58
Rf_1_35	VOP#29	VOP#30	    7.3901	$M1	$X=38.83 $Y=66.465
Rf_1_36	avC9#5	avC9#6	    0.2187	$M1	$X=43.079 $Y=54.745
Rf_1_37	avC9#6	avC9#7	    0.2187	$M1	$X=39.541 $Y=54.745
Rf_1_38	VON#1	VON#2	    7.3901	$M1	$X=44.63 $Y=66.465
Rf_1_39	bias#7	bias#8	    7.5813	$M1	$X=45.33 $Y=66.185
Rf_1_40	VON#3	VON#4	    7.3901	$M1	$X=46.03 $Y=66.465
Rf_1_41	bias#10	bias#11	    7.5813	$M1
+ $X=46.73 $Y=66.185
Rf_1_42	P5#3	P5#4	    4.5211	$M1	$X=46.03 $Y=69.58
Rf_1_43	VON#5	VON#6	    7.3901	$M1	$X=47.43 $Y=66.465
Rf_1_44	avC18	avC18#2	    0.1057	$M1	$X=47.69 $Y=31.38
Rf_1_45	VON#7	VON#8	    7.3901	$M1	$X=48.09 $Y=66.465
Rf_1_46	avC8#8	avC8#9	    7.7725	$M1	$X=48.79 $Y=65.905
Rf_1_47	VON#9	VON#10	    7.3901	$M1	$X=49.49 $Y=66.465
Rf_1_48	avC8#11	avC8#12	    7.7725	$M1
+ $X=50.19 $Y=65.905
Rf_1_49	P4#3	P4#4	    4.5211	$M1	$X=49.49 $Y=69.58
Rf_1_50	VON#11	VON#12	    7.3901	$M1	$X=50.89 $Y=66.465
Rf_1_51	VON#13	VON#14	    7.3901	$M1	$X=51.55 $Y=66.465
Rf_1_52	avC9#8	avC9#9	    7.9637	$M1	$X=52.25 $Y=65.625
Rf_1_53	VON#15	VON#16	    7.3901	$M1	$X=52.95 $Y=66.465
Rf_1_54	avC9#10	avC9#11	    7.9637	$M1
+ $X=53.65 $Y=65.625
Rf_1_55	P1#8	P1#9	    4.5211	$M1	$X=52.95 $Y=69.58
Rf_1_56	VON#17	VON#18	    7.3901	$M1	$X=54.35 $Y=66.465
Rf_1_57	VON#19	VON#20	    7.3901	$M1	$X=55.01 $Y=66.465
Rf_1_58	avC10#5	avC10#6	    8.1549	$M1
+ $X=55.71 $Y=65.345
Rf_1_59	avC10#7	avC10#8	    0.2042	$M1
+ $X=55.839 $Y=54.74
Rf_1_60	avC10#8	avC10#9	    0.2042	$M1
+ $X=52.301 $Y=54.74
Rf_1_61	VON#21	VON#22	    7.3901	$M1	$X=56.41 $Y=66.465
Rf_1_62	avC10#10	avC10#11	    8.1549	$M1
+ $X=57.11 $Y=65.345
Rf_1_63	P2#8	P2#9	    4.5211	$M1	$X=56.41 $Y=69.58
Rf_1_64	VON#23	VON#24	    7.3901	$M1	$X=57.81 $Y=66.465
Rf_1_65	VON#25	VON#26	    7.3901	$M1	$X=58.47 $Y=66.465
Rf_1_66	avC4#5	avC4#6	    8.3462	$M1	$X=59.17 $Y=65.065
Rf_1_67	avC4#7	avC4#8	    0.6225	$M1	$X=58.07 $Y=34.63
Rf_1_68	VON#27	VON#28	    7.3901	$M1	$X=59.87 $Y=66.465
Rf_1_69	avC4#9	avC4#10	    8.3462	$M1	$X=60.57 $Y=65.065
Rf_1_70	P3#8	P3#9	    4.5211	$M1	$X=59.87 $Y=69.58
Rf_1_71	VON#29	VON#30	    7.3901	$M1	$X=61.27 $Y=66.465
Rf_1_72	vdda#3	vdda#4	    7.7236	$M1	$X=66.07 $Y=43.06
Rf_1_73	avC4#11	avC4#12	    7.1115	$M1
+ $X=65.6 $Y=67.88
Rf_1_74	avC4#12	avC4#13	    0.1674	$M1
+ $X=65.186 $Y=67.0985
Rf_1_75	avC4#13	avC4#15	8.522E-02	$M1
+ $X=65.27 $Y=66.48
Rf_1_76	avC4#15	avC4#16	    0.2526	$M1
+ $X=65.245 $Y=66.38
Rf_1_77	avC4#16	avC4#17	3.043E-03	$M1
+ $X=65.2495 $Y=65.64
Rf_1_78	avC4#14	avC4#15	    3.3275	$M1
+ $X=65.27 $Y=66.48
Rf_1_79	avC3	avC3#3	    7.3985	$M1	$X=68.29 $Y=67.88
Rf_1_80	avC3#3	avC3#4	    3.4669	$M1	$X=67.375 $Y=66.49
Rf_1_81	avC3#2	avC3#3	    3.3275	$M1	$X=67.96 $Y=66.48
Rf_1_82	vdda#3	vdda#5	    0.8740	$M1	$X=66.07 $Y=56.3105
Rf_1_83	vdda#5	vdda#6	    3.7859	$M1	$X=70.6295 $Y=43.06
Rf_1_84	vdda#5	vdda#1	    0.8740	$M1	$X=16.55 $Y=56.3105
Rf_1_85	vdda#5	vdda#2	    0.8740	$M1	$X=16.55 $Y=29.8095
Rf_1_86	vdda#5	vdda#4	    0.8740	$M1	$X=66.07 $Y=29.8095
Rf_1_87	vdda#6	vdda#7	3.158E-03	$M1	$X=70.6395 $Y=55.95
Rf_1_88	vdda#5	vdda#8	    6.6363	$M1	$X=70.63 $Y=43.06
Rf_1_89	vdda#5	vdda#9	    4.6011	$M1	$X=70.63 $Y=43.07
Rf_1_90	vdda#9	vdda#5	    0.3756	$M1	$X=70.41 $Y=57.65
Rf_1_91	vssa#1	vssa#2	    0.1740	$M1	$X=20.64 $Y=74.54
Rf_1_92	vssa#2	vssa#3	    0.3794	$M1	$X=41.73 $Y=73.545
Rf_1_93	vssa#3	vssa#1	9.593E-02	$M1	$X=62.605 $Y=74.54
Rf_1_94	vssa#3	vssa#4	    3.3737	$M1	$X=43.18 $Y=73.67
Rf_1_95	vssa#1	vssa	3.552E-02	$M1	$X=72.8255 $Y=66.445
Rf_1_96	vssa	vssa#5	6.859E-02	$M1	$X=71.4945 $Y=66.445
Rf_1_97	vssa#5	vssa#6	8.165E-02	$M1	$X=63.66 $Y=68.475
Rf_1_98	vssa#4	vssa#3	7.807E-02	$M1	$X=42.9705 $Y=73.6695
Rf_1_99	vssa#5	vssa#7	    3.4590	$M1	$X=69.98 $Y=66.49
Rf_1_100	vssa#6	vssa#3	8.506E-03	$M1	$X=63.16 $Y=68.475
Rg_1_1	P3#4	P3#5	   17.7559	$PC	$X=24.3105 $Y=69.595
Rg_1_2	P3#5	P3#2	   16.1538	$PC	$X=23.8795 $Y=69.565
Rg_1_3	P3#2	P3#6	   10.7692	$PC	$X=23.3005 $Y=69.565
Rg_1_4	P3#6	P3#7	   16.3481	$PC	$X=22.9105 $Y=69.595
Rg_1_5	P2#4	P2#5	   17.7559	$PC	$X=27.7705 $Y=69.595
Rg_1_6	P2#5	P2#2	   16.1538	$PC	$X=27.3395 $Y=69.565
Rg_1_7	P2#2	P2#6	   10.7692	$PC	$X=26.7605 $Y=69.565
Rg_1_8	P2#6	P2#7	   16.3481	$PC	$X=26.3705 $Y=69.595
Rg_1_9	P1#4	P1#5	   17.7559	$PC	$X=31.2305 $Y=69.595
Rg_1_10	P1#5	P1#2	   16.1538	$PC	$X=30.7995 $Y=69.565
Rg_1_11	P1#2	P1#6	   10.7692	$PC	$X=30.2205 $Y=69.565
Rg_1_12	P1#6	P1#7	   16.3481	$PC	$X=29.8305 $Y=69.595
Rg_1_13	P4#6	P4#7	   17.7559	$PC	$X=34.6905 $Y=69.595
Rg_1_14	P4#7	P4#2	   16.1538	$PC	$X=34.2595 $Y=69.565
Rg_1_15	P4#2	P4#8	   10.7692	$PC	$X=33.6805 $Y=69.565
Rg_1_16	P4#8	P4#9	   16.3481	$PC	$X=33.2905 $Y=69.595
Rg_1_17	P5#6	P5#7	   17.7559	$PC	$X=38.1505 $Y=69.595
Rg_1_18	P5#7	P5#2	   16.1538	$PC	$X=37.7195 $Y=69.565
Rg_1_19	P5#2	P5#8	   10.7692	$PC	$X=37.1405 $Y=69.565
Rg_1_20	P5#8	P5#9	   16.3481	$PC	$X=36.7505 $Y=69.595
Rg_1_21	P5#10	P5#11	   17.7559	$PC	$X=46.7505 $Y=69.595
Rg_1_22	P5#11	P5#4	   16.1538	$PC	$X=46.3195 $Y=69.565
Rg_1_23	P5#4	P5#12	   10.7692	$PC	$X=45.7405 $Y=69.565
Rg_1_24	P5#12	P5#13	   16.3481	$PC	$X=45.3505 $Y=69.595
Rg_1_25	P4#11	P4#12	   17.7559	$PC	$X=50.2105 $Y=69.595
Rg_1_26	P4#12	P4#4	   16.1538	$PC	$X=49.7795 $Y=69.565
Rg_1_27	P4#4	P4#13	   10.7692	$PC	$X=49.2005 $Y=69.565
Rg_1_28	P4#13	P4#14	   16.3481	$PC	$X=48.8105 $Y=69.595
Rg_1_29	P1#10	P1#11	   17.7559	$PC	$X=53.6705 $Y=69.595
Rg_1_30	P1#11	P1#9	   16.1538	$PC	$X=53.2395 $Y=69.565
Rg_1_31	P1#9	P1#12	   10.7692	$PC	$X=52.6605 $Y=69.565
Rg_1_32	P1#12	P1#13	   16.3481	$PC	$X=52.2705 $Y=69.595
Rg_1_33	P2#10	P2#11	   17.7559	$PC	$X=57.1305 $Y=69.595
Rg_1_34	P2#11	P2#9	   16.1538	$PC	$X=56.6995 $Y=69.565
Rg_1_35	P2#9	P2#12	   10.7692	$PC	$X=56.1205 $Y=69.565
Rg_1_36	P2#12	P2#13	   16.3481	$PC	$X=55.7305 $Y=69.595
Rg_1_37	P3#10	P3#11	   17.7559	$PC	$X=60.5905 $Y=69.595
Rg_1_38	P3#11	P3#9	   16.1538	$PC	$X=60.1595 $Y=69.565
Rg_1_39	P3#9	P3#12	   10.7692	$PC	$X=59.5805 $Y=69.565
Rg_1_40	P3#12	P3#13	   16.3481	$PC	$X=59.1905 $Y=69.595
Rg_1_41	avC4#11	avC4#18	    1.3196	$PC
+ $X=66.03 $Y=67.85
Rg_1_42	avC3	avC3#5	    1.3196	$PC	$X=68.72 $Y=67.85
*
*       CAPACITOR CARDS
*
*
C1	bias#11	VON#22	1.42088E-16	$X=55.72 $Y=65.901
C2	P1#2	VOP#15	3.07016E-17	$X=30.5075 $Y=69.3435
C3	P2	P1	4.35882E-16	$X=19.092 $Y=71.2375
C4	P1	P4	5.9391E-16	$X=20.3605 $Y=71.716
C5	P3	P2	2.81331E-16	$X=19.0215 $Y=70.482
C6	avC4#20	vssa#3	2.11722E-16	$X=60.99 $Y=63.741
C7	P5#12	bias#10	1.77451E-16	$X=46.2625 $Y=69.015
C8	P4	P5	7.74135E-16	$X=22.115 $Y=72.281
C9	bias#12	vdda#5	4.12647E-17	$X=22.453 $Y=60.792
C10	P5#10	P4#14	1.21856E-17	$X=47.757 $Y=68.102
C11	P2#3	P1	1.55834E-16	$X=21.796 $Y=71.297
C12	VON#16	P1#12	1.00441E-17	$X=52.9475 $Y=66.952
C13	VOP	VON	1.04259E-15	$X=67.0005 $Y=60.3105
C14	P1#9	VON#15	3.07016E-17	$X=52.947 $Y=69.3435
C15	avC4#20	vssa#5	1.12191E-17	$X=63.3265 $Y=63.903
C16	avC9#4	avC10#2	3.63793E-16	$X=31.6675 $Y=64.3245
C17	P3#14	P2#8	7.9243E-17	$X=56.3645 $Y=69.868
C18	VOP#19	P4#9	1.76505E-16	$X=32.8495 $Y=68.0675
C19	P3#3	P2	1.62688E-16	$X=21.4335 $Y=70.718
C20	P1#10	VON#17	1.76505E-16	$X=54.065 $Y=68.0675
C21	bias#12	vssa#2	1.76476E-16	$X=22.5075 $Y=62.337
C22	bias	vdda	9.23636E-16	$X=58.2105 $Y=29.5685
C23	VOP#10	P2#6	1.00441E-17	$X=27.0475 $Y=66.952
C24	VON#14	avC9#8	6.68763E-17	$X=51.7195 $Y=66.206
C25	avC4#11	avC3	1.67229E-17	$X=67.197 $Y=67.885
C26	P3#6	bias#3	1.77451E-16	$X=23.8225 $Y=69.015
C27	P1#2	avC9#3	4.47652E-17	$X=30.6005 $Y=69.3485
C28	vssa#3	avC4#10	5.21901E-17	$X=60.525 $Y=64.0205
C29	P1#3	P4	1.65729E-16	$X=24.772 $Y=71.7945
C30	P2#10	P3#13	1.21856E-17	$X=58.137 $Y=68.102
C31	avC8#12	avC9#11	7.68172E-16	$X=54.3115 $Y=64.6965
C32	bias#11	avC10#11	2.86844E-17	$X=55.765 $Y=64.422
C33	VOP	VON#32	2.14046E-16	$X=51.382 $Y=62.165
C34	avC3	vssa#5	1.126E-16	$X=68.669 $Y=67.8635
C35	P4#5	P5	1.61843E-16	$X=26.7275 $Y=72.2825
C36	P1#9	avC9#10	4.47652E-17	$X=53.0405 $Y=69.3485
C37	avC4#22	vssa#3	7.28963E-17	$X=64.474 $Y=66.5785
C38	P1#1	VOP#15	1.56255E-17	$X=30.5075 $Y=69.6995
C39	P1#4	P4#9	1.21856E-17	$X=32.237 $Y=68.102
C40	bias#12	vdda	5.51063E-16	$X=21.5405 $Y=61.5095
C41	avC10	P4#9	1.74236E-16	$X=32.9785 $Y=68.0575
C42	bias#9	vdda	2.76631E-16	$X=24.5585 $Y=34.9325
C43	VOP#29	vssa#2	5.68243E-17	$X=38.5205 $Y=67.9685
C44	vssa#2	avC10#2	7.84194E-17	$X=30.626 $Y=64.253
C45	avC9#4	avC10#4	2.0392E-16	$X=33.87 $Y=64.307
C46	bias#11	VON#24	1.09667E-16	$X=57.0185 $Y=65.91
C47	avC4#22	vssa#5	1.58015E-16	$X=65.0825 $Y=66.511
C48	avC8#10	vdda	3.27463E-16	$X=28.546 $Y=57.2115
C49	VON#26	avC4#5	6.68763E-17	$X=58.6365 $Y=66.1915
C50	avC4#20	avC10#11	1.81445E-16	$X=58.61 $Y=63.8415
C51	avC4#18	avC3#4	1.8368E-16	$X=66.4245 $Y=66.484
C52	VOP	avC10#12	2.23791E-17	$X=56.471 $Y=57.477
C53	VON	avC4#20	2.85095E-16	$X=64.1135 $Y=62.1005
C54	avC9#10	VON#17	1.49893E-16	$X=54.016 $Y=67.897
C55	VON	avC4#22	1.58565E-17	$X=65.2395 $Y=65.622
C56	VOP	avC10#13	1.70029E-16	$X=55.2475 $Y=61.9115
C57	avC9#12	vdda	3.27603E-16	$X=41.3 $Y=57.079
C58	VON#30	vssa#3	1.91604E-17	$X=61.1035 $Y=65.974
C59	bias#11	VON#26	1.09655E-16	$X=57.785 $Y=65.91
C60	VOP	avC4#20	1.84002E-16	$X=63.5475 $Y=61.8185
C61	VOP#16	avC9	6.68448E-17	$X=30.3985 $Y=66.2525
C62	vssa#2	VOP#2	1.93913E-17	$X=22.3625 $Y=65.9745
C63	avC10#12	vdda	3.27638E-16	$X=54.044 $Y=56.932
C64	P1	vssa#2	2.36809E-17	$X=19.558 $Y=71.4075
C65	avC4#19	vdda	1.34732E-15	$X=59.26 $Y=34.945
C66	avC8#12	vssa#3	1.81352E-17	$X=52.9145 $Y=65.1725
C67	VOP#32	VON#32	6.0167E-16	$X=41.9875 $Y=63.012
C68	VOP#13	avC9	1.49893E-16	$X=29.4385 $Y=67.897
C69	avC8#12	avC10#6	4.36221E-17	$X=55.292 $Y=64.1615
C70	avC4#20	vdda	7.46765E-16	$X=61.9025 $Y=62.955
C71	avC10	P4#8	1.77393E-16	$X=33.742 $Y=69.02
C72	VON#27	avC4#9	1.49893E-16	$X=60.198 $Y=67.878
C73	bias#10	P5#10	1.74177E-16	$X=47.013 $Y=68.066
C74	P3#3	vssa#2	2.37581E-17	$X=27.631 $Y=70.1925
C75	VOP#16	avC9#3	6.69431E-17	$X=30.616 $Y=66.2525
C76	VOP#32	P3#3	1.99677E-17	$X=31.6245 $Y=67.4735
C77	avC3#2	avC4#18	6.99939E-18	$X=67.045 $Y=66.484
C78	VON#19	P2#13	1.76505E-16	$X=55.2895 $Y=68.0675
C79	bias#13	vdda#2	1.64687E-17	$X=18.3485 $Y=34.3475
C80	VOP#25	avC4	1.49893E-16	$X=36.351 $Y=67.8795
C81	bias#8	avC4	4.3833E-17	$X=39.7345 $Y=66.6705
C82	bias#3	P3#4	1.74177E-16	$X=24.573 $Y=68.066
C83	VOP#2	bias#1	1.61651E-17	$X=22.385 $Y=66.203
C84	P3#3	VOP#1	1.62789E-17	$X=23.812 $Y=68.664
C85	VOP#32	avC8#13	2.90922E-17	$X=33.8325 $Y=63.2365
C86	VOP#1	bias#1	1.50587E-16	$X=22.526 $Y=67.916
C87	avC8#5	vdda	2.96387E-16	$X=28.5555 $Y=54.9035
C88	P2	vssa#2	1.59444E-17	$X=19.2595 $Y=70.842
C89	VON	bias#11	1.04544E-17	$X=54.106 $Y=64.413
C90	bias#11	VON#28	1.42088E-16	$X=58.795 $Y=65.901
C91	P4#8	VOP#21	3.45693E-16	$X=33.967 $Y=69.0135
C92	P3#3	P2#3	1.80751E-15	$X=28.491 $Y=70.54
C93	P5#10	VON#5	1.76505E-16	$X=47.145 $Y=68.0675
C94	P3#3	VOP#5	1.62789E-17	$X=25.73 $Y=68.664
C95	VOP#32	avC9#12	1.35123E-16	$X=40.512 $Y=58.868
C96	vssa#3	VON#1	5.68243E-17	$X=44.993 $Y=67.9675
C97	P2#3	vssa#2	2.92212E-17	$X=29.62 $Y=70.6525
C98	avC4#2	avC10#2	1.10845E-15	$X=31.7645 $Y=63.78
C99	P3#3	VOP#7	1.62789E-17	$X=26.1895 $Y=68.664
C100	P3#4	VOP#5	1.76505E-16	$X=24.705 $Y=68.0675
C101	VOP#32	avC9#13	2.72851E-16	$X=40.452 $Y=62.937
C102	avC10#5	P2#13	1.74236E-16	$X=55.4185 $Y=68.0575
C103	bias#8	avC4#3	4.27565E-17	$X=40.4495 $Y=66.6705
C104	VON#32	avC9#13	1.00855E-16	$X=42.714 $Y=63.1425
C105	P4#2	avC10	4.47652E-17	$X=33.8755 $Y=69.3505
C106	avC4#22	VON#30	1.58977E-17	$X=61.6395 $Y=66.0265
C107	P2#3	P1#3	1.65761E-15	$X=30.6565 $Y=71.0305
C108	VON	avC10#11	1.40287E-17	$X=59.018 $Y=63.656
C109	P2#3	P4#5	3.46514E-17	$X=31.8795 $Y=71.305
C110	VON	avC4#6	4.70296E-17	$X=58.731 $Y=62.994
C111	bias#11	VON#30	9.80377E-17	$X=60.199 $Y=65.9135
C112	P3#3	VOP#11	1.62789E-17	$X=28.1075 $Y=68.664
C113	P4#8	avC10#3	1.77451E-16	$X=34.1925 $Y=69.02
C114	P3	vssa#2	2.46104E-17	$X=19.2155 $Y=70.3325
C115	VON#7	avC8#8	1.49893E-16	$X=48.422 $Y=67.906
C116	avC9#6	vdda	2.96756E-16	$X=41.3095 $Y=54.9135
C117	P3#3	VOP#13	1.62789E-17	$X=28.567 $Y=68.664
C118	avC8#12	avC10#11	4.36221E-17	$X=56.2725 $Y=64.326
C119	avC8#10	vdda#5	5.58229E-17	$X=28.9155 $Y=56.8935
C120	P2#9	avC10#5	4.47652E-17	$X=56.3155 $Y=69.3505
C121	P1#3	P4#5	1.49448E-15	$X=32.8345 $Y=71.5215
C122	avC10#4	vssa#2	9.73403E-17	$X=36.551 $Y=64.217
C123	P4#2	VOP#21	3.07016E-17	$X=33.9675 $Y=69.3435
C124	vssa#5	avC4#12	4.56821E-17	$X=65.285 $Y=67.5425
C125	VON#32	avC10#13	2.54503E-16	$X=48.941 $Y=62.8485
C126	avC9	VOP#15	1.49893E-16	$X=30.169 $Y=67.8965
C127	P1#3	P5#5	4.86398E-17	$X=34.0555 $Y=71.7985
C128	VOP	avC4#6	1.28934E-17	$X=58.286 $Y=62.8975
C129	P3#8	VON#27	1.56255E-17	$X=59.8675 $Y=69.532
C130	avC10#4	avC4#2	3.70877E-16	$X=35.371 $Y=63.799
C131	P3#3	VOP#17	1.62789E-17	$X=30.485 $Y=68.664
C132	P4#5	P5#5	1.37197E-15	$X=35.0065 $Y=72.012
C133	avC10#4	vssa#3	4.75817E-17	$X=37.573 $Y=64.2125
C134	VON#32	P3#14	1.86367E-17	$X=51.3 $Y=67.481
C135	VOP#18	avC9#3	6.6778E-17	$X=31.735 $Y=66.206
C136	avC9#13	avC8#13	2.89501E-16	$X=36.2435 $Y=63.301
C137	P3#3	VOP#19	1.62789E-17	$X=30.944 $Y=68.664
C138	P1#8	VON#15	1.56255E-17	$X=52.9475 $Y=69.6995
C139	avC10#5	P2#12	1.77393E-16	$X=56.182 $Y=69.02
C140	avC10#8	vdda#5	2.52758E-17	$X=53.8745 $Y=54.652
C141	avC3#5	vssa#7	1.85298E-16	$X=69.118 $Y=66.4845
C142	P2#9	VON#21	3.07016E-17	$X=56.4075 $Y=69.3435
C143	avC10#8	vdda	2.96603E-16	$X=54.064 $Y=54.9035
C144	VOP	vdda#9	1.17451E-17	$X=69.58 $Y=52.9595
C145	avC4	VOP#27	1.49893E-16	$X=37.0965 $Y=67.878
C146	avC4#9	VON#29	1.50587E-16	$X=60.943 $Y=67.8795
C147	P4#2	avC10#3	4.47652E-17	$X=34.059 $Y=69.3505
C148	bias#1	VOP#3	1.49893E-16	$X=23.241 $Y=67.9155
C149	P4	vssa#2	3.09376E-17	$X=22.0055 $Y=71.9355
C150	P3#14	VON#1	1.62789E-17	$X=48.267 $Y=68.6985
C151	VON#28	avC4#5	6.68449E-17	$X=59.7625 $Y=66.236
C152	vssa#3	avC9#9	3.14178E-17	$X=51.245 $Y=64.608
C153	P3#3	VOP#23	1.62789E-17	$X=32.862 $Y=68.664
C154	bias#12	VOP#2	9.34937E-17	$X=22.2745 $Y=65.744
C155	VOP#7	P2#7	1.76505E-16	$X=25.9295 $Y=68.0675
C156	vssa#5	avC4#17	9.38272E-17	$X=65.2995 $Y=66.304
C157	P3#3	VOP#25	1.62789E-17	$X=33.3215 $Y=68.664
C158	VON#7	P4#14	1.76505E-16	$X=48.3695 $Y=68.0675
C159	avC8#13	vssa#2	5.39449E-17	$X=30.7915 $Y=63.9965
C160	VON#16	avC9#8	6.68448E-17	$X=52.8385 $Y=66.2525
C161	bias	vdda#9	3.90018E-17	$X=66.3555 $Y=42.9725
C162	avC8#12	avC4#6	4.88311E-17	$X=54.775 $Y=64.2395
C163	P2#9	avC10#10	4.47652E-17	$X=56.499 $Y=69.3505
C164	vdda#6	vssa#1	2.54537E-17	$X=70.8665 $Y=56.3545
C165	P3#14	P5#4	1.40854E-17	$X=46.7845 $Y=69.6325
C166	P2#12	VON#21	3.45693E-16	$X=56.4075 $Y=69.0135
C167	avC10#4	avC4#4	6.21153E-16	$X=38.5885 $Y=63.7655
C168	P3#3	VOP#29	1.62789E-17	$X=35.2395 $Y=68.664
C169	P3#14	P4#4	1.40854E-17	$X=49.9745 $Y=69.6325
C170	avC9#11	avC10#6	1.36973E-16	$X=55.7145 $Y=64.1
C171	P3#14	VON#5	1.62789E-17	$X=50.144 $Y=68.6985
C172	VON#29	vssa#3	5.43815E-17	$X=61.018 $Y=67.9675
C173	P5	vssa#1	6.0043E-17	$X=22.8055 $Y=72.4715
C174	P5	vssa#2	1.48911E-16	$X=22.892 $Y=72.4555
C175	P3#14	P1#9	1.40854E-17	$X=53.1645 $Y=69.6325
C176	avC8	P2#7	1.74236E-16	$X=26.0605 $Y=68.063
C177	P3#1	VOP#3	1.56255E-17	$X=23.5875 $Y=69.532
C178	avC8#2	bias#12	1.13667E-16	$X=24.775 $Y=64.4005
C179	P3#14	VON#7	1.62789E-17	$X=50.5935 $Y=68.6985
C180	avC10#3	P4#6	1.74177E-16	$X=34.9565 $Y=68.0575
C181	avC8#8	P4#14	1.74236E-16	$X=48.5005 $Y=68.063
C182	VON#28	avC4#9	6.69432E-17	$X=59.972 $Y=66.236
C183	P3#14	P2#9	1.40854E-17	$X=56.3545 $Y=69.6325
C184	P5#3	VON#3	1.56255E-17	$X=46.0275 $Y=69.8515
C185	avC8#8	VON#9	1.49893E-16	$X=49.145 $Y=67.9055
C186	VON#16	avC9#10	6.69431E-17	$X=53.056 $Y=66.2525
C187	P1#3	vssa#2	4.98205E-17	$X=31.629 $Y=71.117
C188	VON#19	avC10#5	1.49893E-16	$X=55.3345 $Y=67.8885
C189	VOP#15	avC9#3	1.49893E-16	$X=30.8455 $Y=67.8965
C190	vssa#1	vdda#9	9.82344E-18	$X=70.183 $Y=50.534
C191	bias	avC18#2	6.83572E-17	$X=47.235 $Y=31.1275
C192	P2#12	avC10#10	1.77451E-16	$X=56.6325 $Y=69.02
C193	P4#10	P5#14	1.89678E-15	$X=49.683 $Y=71.9995
C194	bias	avC18	9.28E-17	$X=51.017 $Y=31.1275
C195	avC10#13	avC9#13	2.91724E-16	$X=46.684 $Y=62.815
C196	VOP#20	avC10	6.68763E-17	$X=32.738 $Y=66.1985
C197	P3#3	P2#1	7.9243E-17	$X=27.0665 $Y=69.866
C198	bias	vdda#4	7.85262E-17	$X=62.7565 $Y=32.172
C199	VON	avC4#18	3.44596E-17	$X=66.216 $Y=65.7075
C200	avC8#12	avC4#10	4.09426E-17	$X=59.612 $Y=64.107
C201	bias#1	VOP#4	1.61651E-17	$X=23.4745 $Y=66.27
C202	VON	avC3#5	3.44596E-17	$X=68.535 $Y=65.7075
C203	bias#12	avC9#2	4.13356E-17	$X=26.4465 $Y=63.766
C204	bias#5	vdda	4.48081E-16	$X=24.5535 $Y=34.9305
C205	VOP#3	bias#3	1.49893E-16	$X=23.9335 $Y=67.9155
C206	P1#14	P5#14	4.86398E-17	$X=50.565 $Y=71.75
C207	avC8#6	vdda	5.27719E-16	$X=24.5525 $Y=54.735
C208	P3#14	VON#11	1.62789E-17	$X=52.471 $Y=68.6985
C209	P4#6	VOP#23	1.76505E-16	$X=35.085 $Y=68.0675
C210	avC17#2	vdda	4.39545E-16	$X=32.74 $Y=31.3805
C211	bias#7	VON#4	1.61651E-17	$X=46.0285 $Y=66.213
C212	avC8#13	bias#4	7.06176E-16	$X=28.1705 $Y=64.7925
C213	avC8#7	vdda	5.19744E-16	$X=32.5505 $Y=54.735
C214	VOP#27	avC4#3	1.49893E-16	$X=37.758 $Y=67.878
C215	avC8	P2#6	1.77393E-16	$X=26.8155 $Y=69.0165
C216	avC17	vdda	4.39457E-16	$X=37.12 $Y=31.3805
C217	P1#14	P4#10	1.84969E-15	$X=51.413 $Y=71.5095
C218	avC9#7	vdda	5.17618E-16	$X=37.3095 $Y=54.735
C219	P3#14	VON#13	1.62789E-17	$X=52.9205 $Y=68.6985
C220	VOP#32	avC10#4	3.40512E-17	$X=37.2985 $Y=63.688
C221	avC18#2	vdda	4.39559E-16	$X=45.4975 $Y=31.3805
C222	vssa#2	avC4#2	5.15531E-16	$X=33.0575 $Y=63.8595
C223	avC9#5	vdda	5.19289E-16	$X=45.3075 $Y=54.735
C224	avC18	vdda	4.39457E-16	$X=49.877 $Y=31.3805
C225	VOP#4	bias#3	1.61651E-17	$X=23.7 $Y=66.27
C226	P4#11	P1#13	1.21856E-17	$X=51.217 $Y=68.102
C227	avC10#9	vdda	5.15708E-16	$X=50.2965 $Y=54.735
C228	P4#5	vssa#2	6.06778E-17	$X=33.6775 $Y=71.5875
C229	VOP#16	P1#6	1.00441E-17	$X=30.5075 $Y=66.952
C230	avC8#8	P4#13	1.77393E-16	$X=49.2555 $Y=69.0165
C231	avC4#7	vdda	4.46963E-16	$X=58.064 $Y=34.9305
C232	vdda#8	vssa#1	2.5351E-17	$X=71.3355 $Y=57.3005
C233	avC10#7	vdda	5.30082E-16	$X=57.8345 $Y=54.735
C234	bias#8	VOP#24	1.00832E-16	$X=36.1985 $Y=65.896
C235	P2#14	P4#10	3.46514E-17	$X=52.2955 $Y=71.2595
C236	bias#12	avC10#2	3.91326E-17	$X=27.837 $Y=63.239
C237	P3#3	P1#1	1.11901E-16	$X=30.286 $Y=70.0015
C238	P4#6	P5#9	1.21856E-17	$X=35.697 $Y=68.102
C239	avC9#11	avC10#11	4.76523E-16	$X=56.977 $Y=64.193
C240	VOP#32	avC4#4	8.70991E-17	$X=40.1185 $Y=63.2985
C241	VON#22	P2#12	1.00441E-17	$X=56.4075 $Y=66.952
C242	VON#4	bias#10	1.61651E-17	$X=46.213 $Y=66.213
C243	P2#6	VOP#9	3.45693E-16	$X=27.0475 $Y=69.0135
C244	bias#8	VOP#26	1.09655E-16	$X=36.941 $Y=65.896
C245	bias#13	avC17#2	9.28206E-17	$X=31.808 $Y=31.693
C246	P5#2	avC4	4.47652E-17	$X=37.337 $Y=69.3515
C247	P2#14	P1#14	1.84385E-15	$X=53.143 $Y=71.0195
C248	P3#14	VON#17	1.62789E-17	$X=54.798 $Y=68.6985
C249	avC8#13	VOP#12	1.43742E-17	$X=28.526 $Y=65.7875
C250	vssa#5	avC4#14	1.18209E-17	$X=65.386 $Y=66.4935
C251	P5#5	vssa#1	7.59016E-17	$X=36.1875 $Y=72.069
C252	VON#32	avC4#4	7.06761E-17	$X=41.7955 $Y=63.431
C253	VOP#32	bias#8	4.10965E-17	$X=41.865 $Y=64.783
C254	P4#13	VON#9	3.45693E-16	$X=49.4875 $Y=69.0135
C255	bias#12	avC4#2	3.88755E-17	$X=29.014 $Y=62.793
C256	P3#14	VON#19	1.62789E-17	$X=55.2475 $Y=68.6985
C257	avC8#13	VOP#14	1.10848E-17	$X=29.3115 $Y=65.7875
C258	P5#5	vssa#2	2.82709E-16	$X=35.7285 $Y=72.0625
C259	P3#3	P4#1	1.11937E-16	$X=33.429 $Y=70.1335
C260	avC8#13	avC9#2	4.34146E-16	$X=28.879 $Y=64.199
C261	P5#2	VOP#27	3.07016E-17	$X=37.4275 $Y=69.3435
C262	avC9#3	VOP#17	1.49893E-16	$X=31.576 $Y=67.897
C263	P2#6	avC8#3	1.77451E-16	$X=27.279 $Y=69.0165
C264	VON#32	bias#8	2.71417E-17	$X=43.371 $Y=64.8385
C265	P3#9	avC4#5	4.47652E-17	$X=59.777 $Y=69.3515
C266	VON#9	avC8#11	1.49893E-16	$X=49.8295 $Y=67.9055
C267	P2#3	P4#1	1.5498E-17	$X=33.582 $Y=70.177
C268	VON#30	avC4#9	6.58065E-17	$X=61.0745 $Y=66.1755
C269	P3#14	P2#14	1.83825E-15	$X=54.873 $Y=70.5295
C270	VON#18	avC9#10	6.6778E-17	$X=54.175 $Y=66.206
C271	bias	vdda#5	6.17124E-16	$X=57.4125 $Y=30.3845
C272	VOP#32	avC8#9	1.33483E-17	$X=44.6945 $Y=64.436
C273	avC8#13	avC9#4	5.07304E-16	$X=31.8625 $Y=64.271
C274	bias	vssa#1	2.20952E-16	$X=57.693 $Y=30.8985
C275	avC10#5	VON#21	1.49893E-16	$X=56.0725 $Y=67.8875
C276	VON	avC3#4	1.58396E-17	$X=66.8595 $Y=65.7615
C277	VOP#25	P5#9	1.76505E-16	$X=36.3095 $Y=68.0675
C278	VON	avC3#2	1.58396E-17	$X=67.891 $Y=65.7615
C279	bias#3	VOP#5	1.49893E-16	$X=24.648 $Y=67.916
C280	VON#32	bias#11	2.2039E-17	$X=48.2815 $Y=64.696
C281	VON	vssa#7	1.58396E-17	$X=69.215 $Y=65.7735
C282	avC10#10	P2#10	1.74177E-16	$X=57.3965 $Y=68.0575
C283	bias#8	VOP#28	1.04314E-16	$X=37.9735 $Y=65.898
C284	vssa#3	avC9#11	4.82121E-17	$X=55.395 $Y=64.6535
C285	P3#3	P5#1	1.11766E-16	$X=36.4985 $Y=70.262
C286	P4#13	avC8#11	1.77451E-16	$X=49.719 $Y=69.0165
C287	P3#14	VON#23	1.62789E-17	$X=57.1245 $Y=68.6985
C288	P5#2	avC4#3	4.47652E-17	$X=37.5175 $Y=69.3515
C289	avC3#4	vssa#5	8.92463E-17	$X=66.8465 $Y=66.5005
C290	P4#1	VOP#21	1.56255E-17	$X=33.9675 $Y=69.777
C291	avC9#11	avC4#6	4.49614E-17	$X=55.9805 $Y=64.0635
C292	avC8#13	avC10#2	1.11319E-16	$X=30.6895 $Y=63.828
C293	avC4#3	VOP#29	1.50587E-16	$X=38.503 $Y=67.8795
C294	VON#32	avC8#9	4.27366E-17	$X=46.017 $Y=64.505
C295	P3#9	VON#27	3.07016E-17	$X=59.8675 $Y=69.3435
C296	bias#3	VOP#6	1.61651E-17	$X=24.812 $Y=66.221
C297	P3#14	VON#25	1.62789E-17	$X=57.574 $Y=68.6985
C298	P2#3	P5#1	4.68672E-17	$X=36.651 $Y=70.3105
C299	VON#32	avC8#12	1.291E-17	$X=50.3665 $Y=64.4595
C300	P3#4	P2#7	1.21856E-17	$X=25.317 $Y=68.102
C301	avC8#13	avC10#4	4.36221E-17	$X=34.757 $Y=63.844
C302	avC8#2	vssa#2	1.13323E-17	$X=25.55 $Y=65.0725
C303	avC4	P5#9	1.74236E-16	$X=36.437 $Y=68.055
C304	vdda	vssa#1	3.62906E-17	$X=46.212 $Y=59.6975
C305	P2#10	VON#23	1.76505E-16	$X=57.525 $Y=68.0675
C306	VON#32	avC9#9	1.37968E-17	$X=49.917 $Y=64.253
C307	P3#9	avC4#9	4.47652E-17	$X=59.9575 $Y=69.3515
C308	VOP#22	avC10	6.68448E-17	$X=33.8605 $Y=66.244
C309	avC9#12	vdda#5	5.59076E-17	$X=41.382 $Y=56.773
C310	avC8#13	avC4#2	1.63603E-16	$X=32.1615 $Y=63.526
C311	bias#10	VON#6	1.61651E-17	$X=47.252 $Y=66.221
C312	avC3#2	vssa#5	7.39466E-17	$X=67.951 $Y=66.5005
C313	avC4#4	vssa#2	2.25476E-16	$X=40.101 $Y=63.7775
C314	P3#14	VON#29	1.62789E-17	$X=59.4515 $Y=68.6985
C315	avC4#18	avC3#5	3.70562E-18	$X=67.372 $Y=66.4925
C316	bias#13	avC17	9.28E-17	$X=35.798 $Y=31.693
C317	avC8#13	avC4#4	4.26907E-17	$X=36.967 $Y=63.523
C318	avC4#4	vssa#3	2.58097E-16	$X=41.249 $Y=63.772
C319	avC4#20	avC10#7	2.54895E-17	$X=58.6235 $Y=56.324
C320	VOP#22	avC10#3	6.69431E-17	$X=34.074 $Y=66.244
C321	avC8#3	P2#4	1.74177E-16	$X=28.034 $Y=68.063
C322	avC9#11	avC4#10	4.03516E-17	$X=59.758 $Y=64.0635
C323	VOP#2	bias#2	7.26902E-17	$X=22.6225 $Y=65.733
C324	avC4	P5#8	1.77393E-16	$X=37.205 $Y=69.0215
C325	avC4#6	avC10#6	1.11768E-16	$X=55.948 $Y=63.9125
C326	avC8#7	avC9#7	3.40298E-17	$X=34.936 $Y=54.7375
C327	avC8#11	VON#11	1.49893E-16	$X=50.552 $Y=67.906
C328	avC8#13	bias#8	3.61573E-16	$X=38.623 $Y=64.7925
C329	avC4#20	vdda#3	1.93901E-17	$X=64.031 $Y=57.3955
C330	VOP#8	avC8	4.17445E-17	$X=25.821 $Y=66.2135
C331	avC9#13	vssa#2	1.03615E-16	$X=40.577 $Y=63.5225
C332	VON#21	avC10#10	1.49893E-16	$X=56.742 $Y=67.8875
C333	avC9#6	vdda#5	2.55264E-17	$X=41.3895 $Y=54.6615
C334	VON#20	avC10#5	6.68763E-17	$X=55.178 $Y=66.1985
C335	avC9#13	vssa#3	7.82073E-17	$X=42.3765 $Y=63.5135
C336	VON#32	avC4#6	6.44421E-17	$X=53.088 $Y=63.431
C337	avC8#11	P4#11	1.74177E-16	$X=50.474 $Y=68.063
C338	P2#4	VOP#11	1.76505E-16	$X=28.165 $Y=68.0675
C339	bias#4	avC10	1.50916E-17	$X=30.108 $Y=66.6935
C340	P5#8	VOP#27	3.45693E-16	$X=37.4275 $Y=69.0135
C341	VOP#4	bias#2	1.22504E-16	$X=23.2765 $Y=65.699
C342	avC9#13	avC10#4	8.0579E-16	$X=38.4415 $Y=63.6645
C343	bias#8	VON#4	6.15225E-17	$X=45.7505 $Y=65.898
C344	vssa#3	avC10#6	3.69569E-17	$X=55.7795 $Y=64.047
C345	VON#25	P3#13	1.76505E-16	$X=58.7495 $Y=68.0675
C346	avC8#5	vdda#5	2.52758E-17	$X=28.9045 $Y=54.652
C347	P5#4	bias#7	4.47652E-17	$X=45.93 $Y=69.3455
C348	bias#4	avC10#3	1.50916E-17	$X=30.83 $Y=66.6935
C349	avC9#13	avC4#2	4.36238E-17	$X=36.9005 $Y=63.3065
C350	P4#11	VON#11	1.76505E-16	$X=50.605 $Y=68.0675
C351	P3#2	bias#1	4.47652E-17	$X=23.49 $Y=69.3455
C352	P5#8	avC4#3	1.77451E-16	$X=37.6495 $Y=69.0215
C353	VON#8	avC8#8	4.17445E-17	$X=48.261 $Y=66.2135
C354	avC8#2	bias#2	1.06867E-16	$X=23.5575 $Y=65.3525
C355	VOP#4	bias#4	1.21639E-16	$X=24.0435 $Y=65.885
C356	P5#4	VON#3	3.07016E-17	$X=46.0275 $Y=69.3435
C357	VOP#24	avC10#3	6.6778E-17	$X=35.1965 $Y=66.1985
C358	avC9#13	avC4#4	1.55958E-16	$X=40.892 $Y=63.3365
C359	VOP#19	avC10	1.49893E-16	$X=32.8945 $Y=67.8885
C360	avC4#12	avC3#4	9.43205E-18	$X=65.4115 $Y=67.4455
C361	avC4#5	P3#13	1.74236E-16	$X=58.877 $Y=68.055
C362	VOP#7	avC8	1.49893E-16	$X=25.982 $Y=67.906
C363	avC10#11	avC4#6	3.69608E-16	$X=57.5795 $Y=63.83
C364	P3#2	VOP#3	3.07016E-17	$X=23.5875 $Y=69.3435
C365	P5#14	vssa#1	1.04727E-16	$X=48.761 $Y=72.008
C366	bias#13	avC18#2	2.44428E-17	$X=43.429 $Y=31.693
C367	avC4#22	avC3#4	3.09942E-17	$X=65.921 $Y=66.479
C368	vssa#3	P3#10	1.43896E-17	$X=60.859 $Y=68.111
C369	VON#4	bias#11	1.21639E-16	$X=46.5045 $Y=65.9115
C370	VOP#6	bias#4	1.60415E-16	$X=25.1195 $Y=65.896
C371	bias#13	vdda	2.36399E-15	$X=22.379 $Y=34.9405
C372	VOP#13	P1#7	1.76505E-16	$X=29.3895 $Y=68.0675
C373	VON#10	P4#13	1.00441E-17	$X=49.4875 $Y=66.952
C374	avC4#22	avC3#2	1.29316E-17	$X=66.5735 $Y=66.479
C375	P5#14	vssa#3	3.92148E-16	$X=49.247 $Y=72.0065
C376	P5#4	bias#10	4.47652E-17	$X=46.1245 $Y=69.3455
C377	bias#4	VOP#8	1.09655E-16	$X=25.8615 $Y=65.896
C378	P2#1	VOP#9	1.56255E-17	$X=27.0475 $Y=69.6175
C379	avC9#13	bias#8	3.01744E-17	$X=42.3325 $Y=64.5895
C380	VOP#22	P4#8	1.00441E-17	$X=33.9675 $Y=66.952
C381	avC8#9	bias#8	6.00123E-16	$X=44.753 $Y=65.2145
C382	P3#2	bias#3	4.47652E-17	$X=23.6845 $Y=69.3455
C383	avC10#10	VON#23	1.49893E-16	$X=57.4795 $Y=67.8885
C384	bias#4	avC8#2	3.67512E-16	$X=25.87 $Y=65.141
C385	VON#1	bias#7	1.50587E-16	$X=44.966 $Y=67.916
C386	vssa#2	P5#6	1.46756E-17	$X=38.405 $Y=68.1115
C387	VON#6	bias#11	1.60415E-16	$X=47.605 $Y=65.91
C388	bias#8	vssa#2	7.33555E-17	$X=42.3215 $Y=65.6295
C389	avC9	P1#7	1.74236E-16	$X=29.5195 $Y=68.06
C390	avC4#17	avC3#4	3.38659E-17	$X=65.5095 $Y=66.3255
C391	vssa#1	vdda#5	1.95198E-15	$X=45.5595 $Y=50.073
C392	avC4#5	P3#12	1.77393E-16	$X=59.645 $Y=69.0215
C393	VOP#10	avC8	4.16848E-17	$X=26.9365 $Y=66.261
C394	bias#4	VOP#10	1.41043E-16	$X=27.003 $Y=65.885
C395	VOP#8	avC8#2	3.16598E-17	$X=25.6725 $Y=65.746
C396	P2#8	VON#21	1.56255E-17	$X=56.4075 $Y=69.6175
C397	P4#10	vssa#3	8.31793E-17	$X=50.842 $Y=71.556
C398	VON#13	P1#13	1.76505E-16	$X=51.8295 $Y=68.0675
C399	bias#11	VON#8	1.09655E-16	$X=48.3715 $Y=65.91
C400	bias#8	vssa#3	7.40149E-17	$X=43.3905 $Y=65.626
C401	bias#11	avC10#5	1.50916E-17	$X=53.4625 $Y=66.869
C402	avC9#13	avC8#9	7.54188E-16	$X=44.7225 $Y=64.3005
C403	P1#10	P2#13	1.21856E-17	$X=54.677 $Y=68.102
C404	avC10#11	avC4#10	4.13846E-17	$X=60.015 $Y=63.987
C405	avC4#3	P5#6	1.75566E-16	$X=38.4175 $Y=68.055
C406	bias#4	avC8#4	4.49951E-17	$X=27.6615 $Y=65.2635
C407	P3#3	P2#2	1.45989E-17	$X=27.071 $Y=69.629
C408	avC10#12	vdda#5	5.58229E-17	$X=53.855 $Y=56.6375
C409	VOP#10	avC8#3	4.17445E-17	$X=27.158 $Y=66.261
C410	bias#11	avC8#9	3.69655E-16	$X=48.0695 $Y=65.1785
C411	P3#3	P1#2	1.45372E-17	$X=30.2775 $Y=69.629
C412	bias#12	vdda#1	1.64687E-17	$X=19.231 $Y=57.151
C413	avC3#2	vssa#7	4.27384E-17	$X=68.7245 $Y=66.477
C414	VOP#26	avC4	6.68763E-17	$X=36.1965 $Y=66.1915
C415	avC10	VOP#21	1.49893E-16	$X=33.6325 $Y=67.8875
C416	bias#4	VOP#12	1.06398E-16	$X=28.1585 $Y=65.896
C417	P3#3	P4#2	1.40854E-17	$X=33.4835 $Y=69.629
C418	VON#22	avC10#5	6.68448E-17	$X=56.3005 $Y=66.244
C419	avC8	VOP#9	1.49893E-16	$X=26.705 $Y=67.9055
C420	VOP#10	avC8#2	2.80438E-17	$X=26.643 $Y=65.7115
C421	vssa#5	avC4#18	5.81392E-17	$X=66.151 $Y=66.5175
C422	avC4#4	avC10#13	4.30915E-16	$X=44.9575 $Y=63.1435
C423	bias#12	avC8#6	3.00382E-17	$X=23.8665 $Y=56.263
C424	avC9	P1#6	1.77393E-16	$X=30.2785 $Y=69.0185
C425	P3#3	P5#2	1.40854E-17	$X=36.69 $Y=69.629
C426	P3#12	VON#27	3.45693E-16	$X=59.8675 $Y=69.0135
C427	bias#4	VOP#14	1.06287E-16	$X=28.901 $Y=65.896
C428	P4#3	VON#9	1.56255E-17	$X=49.4875 $Y=69.777
C429	avC9#8	P1#13	1.74236E-16	$X=51.9595 $Y=68.06
C430	bias#11	avC10#10	1.50916E-17	$X=54.288 $Y=66.869
C431	bias#4	avC9#2	5.0653E-17	$X=27.4495 $Y=64.9265
C432	vssa#3	P5#13	1.30642E-17	$X=45.0645 $Y=68.111
C433	P5#6	VOP#29	1.83668E-16	$X=38.545 $Y=68.0675
C434	VON#13	avC9#8	1.49893E-16	$X=51.8785 $Y=67.897
C435	bias#11	VON#10	1.42088E-16	$X=49.571 $Y=65.901
C436	bias#13	vdda#5	5.29429E-16	$X=24.5225 $Y=35.7015
C437	VON#8	avC8#9	3.16598E-17	$X=47.9715 $Y=65.831
C438	P2#4	P1#7	1.21856E-17	$X=28.777 $Y=68.102
C439	P1#6	VOP#15	3.45693E-16	$X=30.5075 $Y=69.0135
C440	vssa#3	avC10#11	6.15554E-17	$X=57.9355 $Y=64.1225
C441	bias#7	VON#3	1.49893E-16	$X=45.681 $Y=67.9155
C442	VON#10	avC8#8	4.16848E-17	$X=49.3765 $Y=66.261
C443	bias#4	VOP#16	1.42088E-16	$X=29.963 $Y=65.885
C444	VOP#4	P3#6	1.00441E-17	$X=23.5875 $Y=66.952
C445	VON#22	avC10#10	6.69431E-17	$X=56.514 $Y=66.244
C446	vssa#5	avC3#5	6.34493E-17	$X=68.652 $Y=66.5175
C447	P3#12	avC4#9	1.77451E-16	$X=60.0895 $Y=69.0215
C448	bias#11	avC8#12	1.09077E-15	$X=51.6765 $Y=65.194
C449	VOP#10	avC8#4	2.46871E-17	$X=27.4985 $Y=65.4975
C450	vssa#2	P3#7	1.30642E-17	$X=22.613 $Y=68.1115
C451	bias#4	avC9#4	4.38312E-17	$X=30.2505 $Y=64.8335
C452	P1#14	vssa#3	6.6445E-17	$X=52.4405 $Y=71.1045
C453	avC9#2	avC8#2	4.6755E-16	$X=26.4245 $Y=64.7875
C454	P4#4	avC8#8	4.47652E-17	$X=49.392 $Y=69.347
C455	avC9#8	P1#12	1.77393E-16	$X=52.7185 $Y=69.0185
C456	VON#28	P3#12	1.00441E-17	$X=59.8675 $Y=66.952
C457	P2#2	avC8	4.47652E-17	$X=26.952 $Y=69.347
C458	avC10#13	bias#11	1.85598E-17	$X=50.9515 $Y=64.186
C459	bias#11	VON#12	1.09667E-16	$X=50.743 $Y=65.91
C460	bias#4	VOP#18	1.09667E-16	$X=31.198 $Y=65.896
C461	P2#14	P5#3	4.68672E-17	$X=46.8005 $Y=70.31
C462	bias#11	avC4#5	4.3833E-17	$X=55.4575 $Y=66.845
C463	vssa#2	avC9#2	4.61007E-17	$X=28.1265 $Y=64.657
C464	avC9#5	avC10#9	3.40298E-17	$X=47.7995 $Y=54.737
C465	P1#6	avC9#3	1.77451E-16	$X=30.736 $Y=69.0185
C466	bias#4	VOP#20	1.09655E-16	$X=31.94 $Y=65.896
C467	VON#10	avC8#11	4.17445E-17	$X=49.598 $Y=66.261
C468	bias#11	VON#14	1.09655E-16	$X=51.509 $Y=65.91
C469	bias#13	vssa#1	1.61668E-16	$X=23.9855 $Y=36.6665
C470	VON#10	avC8#9	2.83876E-17	$X=49.0425 $Y=65.808
C471	bias#4	avC10#2	3.38259E-17	$X=28.5705 $Y=64.773
C472	P2#2	VOP#9	3.07016E-17	$X=27.0475 $Y=69.3435
C473	VOP#12	avC8#4	2.45855E-17	$X=27.9915 $Y=65.5305
C474	P4#4	VON#9	3.07016E-17	$X=49.4875 $Y=69.3435
C475	VOP#9	avC8#3	1.49893E-16	$X=27.3895 $Y=67.9055
C476	VOP#21	avC10#3	1.49893E-16	$X=34.302 $Y=67.8875
C477	avC10#13	vssa#3	6.40427E-17	$X=52.0495 $Y=63.049
C478	P1#12	VON#15	3.45693E-16	$X=52.9475 $Y=69.0135
C479	P3#14	P5#3	1.11766E-16	$X=46.9795 $Y=70.2625
C480	bias#11	avC9#9	4.38677E-17	$X=50.8755 $Y=64.784
C481	bias#11	vssa#3	1.43797E-17	$X=50.4915 $Y=65.679
C482	bias#11	avC4#9	4.11882E-17	$X=56.2755 $Y=66.845
C483	P5#13	VON#1	1.83668E-16	$X=44.9095 $Y=68.0675
C484	P5#1	VOP#27	1.56255E-17	$X=37.4275 $Y=69.8515
C485	bias#4	VOP#22	1.42088E-16	$X=32.9225 $Y=65.885
C486	P2#2	avC8#3	4.47652E-17	$X=27.1425 $Y=69.347
C487	P4#4	avC8#11	4.47652E-17	$X=49.5825 $Y=69.347
C488	avC10#13	avC8#12	2.70682E-17	$X=52.451 $Y=64.041
C489	P2#14	P4#3	1.5498E-17	$X=49.874 $Y=70.176
C490	bias#4	avC10#4	2.86844E-17	$X=31.886 $Y=64.7155
C491	VOP#12	avC8#3	4.16848E-17	$X=28.2735 $Y=66.2135
C492	avC9#8	VON#15	1.49893E-16	$X=52.609 $Y=67.8965
C493	avC3	avC4#18	2.79249E-18	$X=68.1095 $Y=67.5825
C494	bias#4	VOP#24	1.08187E-17	$X=34.237 $Y=65.896
C495	VON#3	bias#10	1.49893E-16	$X=46.3735 $Y=67.9155
C496	P1#12	avC9#10	1.77451E-16	$X=53.176 $Y=69.0185
C497	VOP#28	avC4	6.68449E-17	$X=37.2475 $Y=66.1845
C498	P2#14	vssa#3	4.19936E-17	$X=54.042 $Y=70.6525
C499	avC10#13	avC9#9	5.3428E-16	$X=51.3345 $Y=63.993
C500	VON#10	avC8#12	2.84123E-17	$X=49.939 $Y=65.8235
C501	bias#7	P5#13	1.75624E-16	$X=45.0415 $Y=68.066
C502	P3#7	VOP#1	1.83668E-16	$X=22.4695 $Y=68.0675
C503	avC4#9	P3#10	1.75566E-16	$X=60.8575 $Y=68.055
C504	VON#25	avC4#5	1.49893E-16	$X=58.791 $Y=67.8795
C505	avC4#22	bias#11	1.44044E-17	$X=59.302 $Y=66.096
C506	bias#11	VON#16	1.42088E-16	$X=52.6455 $Y=65.901
C507	P3#14	P4#3	1.11937E-16	$X=50.029 $Y=70.134
C508	avC9#9	avC8#9	2.28149E-16	$X=49.389 $Y=64.6735
C509	avC9#3	P1#4	1.74177E-16	$X=31.495 $Y=68.06
C510	vssa#3	avC4#6	3.75548E-16	$X=56.609 $Y=63.772
C511	VOP#28	avC4#3	4.33487E-17	$X=37.4185 $Y=66.1845
C512	bias#11	avC9#11	4.38312E-17	$X=53.47 $Y=64.8555
C513	avC10#13	avC9#11	2.53423E-16	$X=54.2675 $Y=63.865
C514	avC8#3	VOP#11	1.49893E-16	$X=28.112 $Y=67.906
C515	VON#12	avC8#11	4.16848E-17	$X=50.7135 $Y=66.2135
C516	bias#1	P3#7	1.75624E-16	$X=22.6015 $Y=68.066
C517	VON#12	avC8#12	3.16214E-17	$X=51.026 $Y=65.8445
C518	avC10#3	VOP#23	1.49893E-16	$X=35.0395 $Y=67.8885
C519	vssa#2	avC9#4	2.9457E-17	$X=32.142 $Y=64.6025
C520	bias#11	VON#18	1.09667E-16	$X=53.8805 $Y=65.91
C521	P3#10	VON#29	1.83668E-16	$X=60.985 $Y=68.0675
C522	bias#7	P5#12	1.77393E-16	$X=45.792 $Y=69.015
C523	avC4#20	avC8#12	1.06539E-17	$X=55.184 $Y=64.457
C524	VOP#32	vssa#2	2.95728E-17	$X=37.7985 $Y=63.5165
C525	P1#4	VOP#17	1.76505E-16	$X=31.625 $Y=68.0675
C526	VON#24	avC10#10	6.6778E-17	$X=57.6365 $Y=66.1985
C527	VOP#14	avC9	6.68763E-17	$X=29.2795 $Y=66.206
C528	avC8#9	vssa#2	4.63825E-17	$X=45.858 $Y=65.153
C529	bias#11	VON#20	1.09655E-16	$X=54.647 $Y=65.91
C530	avC4#22	avC8#12	1.04175E-17	$X=59.6515 $Y=65.83
C531	vssa#2	VOP#1	5.52883E-17	$X=22.5075 $Y=67.9685
C532	P3#14	P1#8	1.11901E-16	$X=53.1565 $Y=70.003
C533	avC8#12	avC9#9	3.7084E-16	$X=51.746 $Y=64.6585
C534	P3#14	vssa#3	3.65294E-17	$X=55.647 $Y=70.1995
C535	bias#1	P3#6	1.77393E-16	$X=23.352 $Y=69.015
C536	bias#11	avC10#6	2.86844E-17	$X=55.0125 $Y=64.202
C537	avC8#9	vssa#3	4.66971E-17	$X=46.88 $Y=65.1495
C538	VON#15	avC9#10	1.49893E-16	$X=53.2855 $Y=67.8965
C539	P5#12	VON#3	3.45693E-16	$X=46.0275 $Y=69.0135
C540	avC10#2	avC9#2	7.57532E-16	$X=29.12 $Y=64.2795
C541	bias#10	VON#5	1.49893E-16	$X=47.088 $Y=67.916
C542	P1#2	avC9	4.47652E-17	$X=30.414 $Y=69.3485
C543	avC4#20	vdda#5	4.12647E-17	$X=61.1155 $Y=62.0215
C544	avC9#10	P1#10	1.74177E-16	$X=53.935 $Y=68.06
C545	VON#32	vssa#3	1.8655E-17	$X=45.6665 $Y=63.8675
C546	P1#9	avC9#8	4.47652E-17	$X=52.854 $Y=69.3485
C547	P3#6	VOP#3	3.45693E-16	$X=23.5875 $Y=69.0135
C548	avC4#5	VON#27	1.49893E-16	$X=59.5365 $Y=67.878
C549	avC4#11	vssa#5	7.80637E-17	$X=66.039 $Y=67.868
C550	avC4#20	avC9#11	2.49414E-17	$X=56.7805 $Y=64.17
C551	avC10#13	avC4#6	7.75437E-16	$X=54.8255 $Y=63.1435
C552	bias#8	VOP#30	2.22238E-16	$X=39.9435 $Y=65.7875
C553	VON#2	bias#7	1.61651E-17	$X=44.8595 $Y=66.525
C554	avC4#3	VOP#30	8.86818E-17	$X=38.607 $Y=66.4655
C555	VON#2	bias#8	2.94982E-16	$X=44.153 $Y=65.7875
C556	VOP#30	avC9#13	1.1229E-17	$X=39.276 $Y=65.392
C557	avC8#9	VON#2	1.89816E-17	$X=45.2015 $Y=65.6405
C558	VON#2	vssa#3	2.99092E-17	$X=44.828 $Y=65.969
C559	VON#2	avC9#13	1.16941E-17	$X=44.056 $Y=65.3915
C560	VOP#30	avC8#13	1.1467E-17	$X=37.4045 $Y=65.5005
C561	VOP#30	vssa#2	2.99092E-17	$X=38.6555 $Y=65.9705
C562	P2#14	P1#8	2.33065E-18	$X=53.0255 $Y=70.039
C563	P2#3	P1#2	3.03155E-18	$X=30.4315 $Y=69.671
C564	P2#14	P1#9	3.03155E-18	$X=53.0285 $Y=69.6695
C565	P1#3	P2#2	3.69952E-18	$X=27.4365 $Y=69.7185
C566	P1#14	P2#9	3.69952E-18	$X=56.0925 $Y=69.7055
C567	P1#8	P2#9	5.09834E-18	$X=54.6415 $Y=69.7825
C568	P1#1	P2#2	5.09834E-18	$X=28.813 $Y=69.7825
C569	P2#8	P1#9	5.09834E-18	$X=54.8735 $Y=69.7235
C570	P2#1	P1#2	5.09834E-18	$X=28.581 $Y=69.7235
C571	P2#2	P1#7	5.5215E-18	$X=28.0515 $Y=68.9625
C572	P1#9	P2#13	5.5215E-18	$X=53.9515 $Y=68.9625
C573	P2#9	P1#10	6.68241E-18	$X=55.4025 $Y=68.9625
C574	P1#2	P2#4	6.68241E-18	$X=29.5025 $Y=68.9625
C575	P2#2	P1#2	7.00039E-18	$X=28.7775 $Y=69.5775
C576	P1#9	P2#9	7.00039E-18	$X=54.6775 $Y=69.5775
C577	P1	P3#3	2.26602E-18	$X=21.1605 $Y=71.1915
C578	P3#14	P1#12	3.21847E-18	$X=53.5325 $Y=69.7265
C579	P3#3	P1#6	3.21847E-18	$X=29.8825 $Y=69.7185
C580	P1	P3#2	4.2298E-18	$X=22.6965 $Y=69.967
C581	P1#14	P3#9	5.39284E-18	$X=59.2895 $Y=69.7055
C582	P4#1	P1#4	1.91823E-18	$X=32.894 $Y=69.2215
C583	P1#3	P4#2	3.21655E-18	$X=33.777 $Y=69.7185
C584	P1#14	P4#4	3.21655E-18	$X=49.699 $Y=69.7055
C585	P4#1	P1#2	5.09834E-18	$X=32.137 $Y=69.833
C586	P1#1	P4#2	5.09834E-18	$X=32.2015 $Y=69.7825
C587	P1#8	P4#4	5.09834E-18	$X=51.253 $Y=69.7825
C588	P4#3	P1#9	5.09834E-18	$X=51.3175 $Y=69.833
C589	P4#4	P1#13	5.5215E-18	$X=50.4915 $Y=68.9625
C590	P1#2	P4#9	5.5215E-18	$X=31.5115 $Y=68.9625
C591	P4#2	P1#4	6.68241E-18	$X=32.9625 $Y=68.9625
C592	P1#9	P4#11	6.68241E-18	$X=51.9425 $Y=68.9625
C593	P1#2	P4#2	7.00039E-18	$X=32.2375 $Y=69.5775
C594	P4#4	P1#9	7.00039E-18	$X=51.2175 $Y=69.5775
C595	P1#14	P5#4	3.21655E-18	$X=46.5025 $Y=69.7055
C596	P1#3	P5#2	3.21655E-18	$X=36.9475 $Y=69.7185
C597	P2#3	P3#1	2.33065E-18	$X=23.8905 $Y=69.7545
C598	P2#14	P3#8	2.33065E-18	$X=59.573 $Y=69.754
C599	P3#14	P2#12	3.21847E-18	$X=56.2655 $Y=69.7265
C600	P3#3	P2#6	3.21847E-18	$X=27.112 $Y=69.7185
C601	P2#3	P3#2	3.46463E-18	$X=24.0525 $Y=69.671
C602	P2#14	P3#9	3.46463E-18	$X=59.4155 $Y=69.6695
C603	P2#1	P3#2	5.09834E-18	$X=25.5135 $Y=69.7235
C604	P3#8	P2#9	5.09834E-18	$X=58.526 $Y=69.6525
C605	P3#1	P2#2	5.09834E-18	$X=24.9285 $Y=69.6525
C606	P2#8	P3#9	5.09834E-18	$X=57.941 $Y=69.7235
C607	P2#9	P3#13	5.5215E-18	$X=57.4115 $Y=68.9625
C608	P3#2	P2#7	5.5215E-18	$X=24.5915 $Y=68.9625
C609	P2#2	P3#4	6.68241E-18	$X=26.0425 $Y=68.9625
C610	P3#9	P2#10	6.68241E-18	$X=58.8625 $Y=68.9625
C611	P2#9	P3#9	7.00039E-18	$X=58.137 $Y=69.5775
C612	P3#2	P2#2	7.00039E-18	$X=25.3175 $Y=69.5775
C613	VON#13	P1#12	4.58524E-18	$X=52.454 $Y=68.9935
C614	VON#15	P1#10	4.9201E-18	$X=53.8005 $Y=68.069
C615	VON#15	P1#13	4.9201E-18	$X=52.094 $Y=68.069
C616	VON#14	P1#13	5.02203E-18	$X=51.7455 $Y=66.8385
C617	VON#18	P1#10	5.02203E-18	$X=54.149 $Y=66.839
C618	VON#32	P1#14	7.29002E-18	$X=49.171 $Y=68.017
C619	VON#11	P1#13	7.49799E-18	$X=51.699 $Y=68.0675
C620	VON#19	P1#10	7.49799E-18	$X=54.1955 $Y=68.0675
C621	VOP#15	P1#4	4.9201E-18	$X=31.3605 $Y=68.069
C622	VOP#15	P1#7	4.9201E-18	$X=29.654 $Y=68.069
C623	VOP#14	P1#7	5.02203E-18	$X=29.3055 $Y=66.8385
C624	VOP#18	P1#4	5.02203E-18	$X=31.709 $Y=66.839
C625	VOP#19	P1#4	7.49799E-18	$X=31.7555 $Y=68.0675
C626	VOP#11	P1#7	7.49799E-18	$X=29.259 $Y=68.0675
C627	VOP#32	P1#3	7.64415E-18	$X=34.109 $Y=68.371
C628	P2#14	P5#4	3.03155E-18	$X=46.6415 $Y=69.6695
C629	P5	P2#3	3.28572E-18	$X=24.884 $Y=71.9885
C630	P5#14	P2#14	3.28572E-18	$X=51.459 $Y=71.4965
C631	P4#10	P3#9	2.33681E-18	$X=59.1665 $Y=69.741
C632	P3#14	P4#13	3.21847E-18	$X=50.8 $Y=69.7265
C633	P3#3	P4#8	3.21847E-18	$X=32.653 $Y=69.7185
C634	P2#14	VON#29	4.20341E-18	$X=58.907 $Y=68.8505
C635	P2#14	VON#13	4.20341E-18	$X=52.3465 $Y=68.8505
C636	P2#14	VON#25	4.20341E-18	$X=57.021 $Y=68.8505
C637	P2#14	VON#23	4.20341E-18	$X=56.5695 $Y=68.8505
C638	P2#14	VON#11	4.20341E-18	$X=51.895 $Y=68.8505
C639	P2#14	VON#5	4.20341E-18	$X=49.5575 $Y=68.8505
C640	P2#14	VON#19	4.20341E-18	$X=54.684 $Y=68.8505
C641	P2#14	VON#7	4.20341E-18	$X=50.0095 $Y=68.8505
C642	P2#14	VON#17	4.20341E-18	$X=54.2325 $Y=68.8505
C643	VON#19	P2#12	4.58524E-18	$X=55.914 $Y=68.9935
C644	VON#23	P2#12	4.58524E-18	$X=56.9005 $Y=68.9935
C645	VON#21	P2#10	4.9201E-18	$X=57.2605 $Y=68.069
C646	VON#21	P2#13	4.9201E-18	$X=55.554 $Y=68.069
C647	VON#24	P2#10	5.02203E-18	$X=57.609 $Y=66.839
C648	VON#20	P2#13	5.02203E-18	$X=55.2055 $Y=66.8385
C649	VON	P2#12	6.95939E-18	$X=57.371 $Y=68.807
C650	VON#32	P2#14	7.29002E-18	$X=50.2295 $Y=67.7505
C651	VON#25	P2#10	7.49799E-18	$X=57.6555 $Y=68.0675
C652	VON#17	P2#13	7.49799E-18	$X=55.159 $Y=68.0675
C653	P2#3	VOP#29	4.20341E-18	$X=35.776 $Y=68.8605
C654	P2#3	VOP#13	4.20341E-18	$X=29.2505 $Y=68.8605
C655	P2#3	VOP#25	4.20341E-18	$X=33.9 $Y=68.8605
C656	P2#3	VOP#11	4.20341E-18	$X=28.801 $Y=68.8605
C657	P2#3	VOP#23	4.20341E-18	$X=33.451 $Y=68.8605
C658	P2#3	VOP#7	4.20341E-18	$X=26.9255 $Y=68.8605
C659	P2	VOP#1	4.20341E-18	$X=20.4795 $Y=69.446
C660	VOP#7	P2#6	4.58524E-18	$X=26.554 $Y=68.9935
C661	VOP#11	P2#6	4.58524E-18	$X=27.5405 $Y=68.9935
C662	VOP#9	P2#4	4.9201E-18	$X=27.9005 $Y=68.069
C663	VOP#9	P2#7	4.9201E-18	$X=26.194 $Y=68.069
C664	VOP#8	P2#7	5.02203E-18	$X=25.8455 $Y=66.8385
C665	VOP#12	P2#4	5.02203E-18	$X=28.249 $Y=66.839
C666	VOP#5	P2#7	7.49799E-18	$X=25.799 $Y=68.0675
C667	VOP#13	P2#4	7.49799E-18	$X=28.2955 $Y=68.0675
C668	VOP#32	P2#3	7.64415E-18	$X=32.8355 $Y=67.911
C669	P5	P3#2	2.81845E-18	$X=23.4405 $Y=70.0185
C670	P5#14	P3#9	2.81845E-18	$X=59.0465 $Y=69.7755
C671	P3#14	P5#12	3.21847E-18	$X=48.067 $Y=69.7265
C672	P3#3	P5#8	3.21847E-18	$X=35.4235 $Y=69.7185
C673	VON#27	P3#13	4.9201E-18	$X=59.014 $Y=68.069
C674	VON#26	P3#13	5.02203E-18	$X=58.6655 $Y=66.8385
C675	VON#30	P3#10	5.02203E-18	$X=61.054 $Y=66.7975
C676	VON#29	P3#12	6.34386E-18	$X=60.3605 $Y=68.9935
C677	VON#27	P3#10	6.49646E-18	$X=60.7205 $Y=68.069
C678	P3#14	VON#27	6.81169E-18	$X=58.4645 $Y=68.726
C679	P3#14	VON#3	6.81169E-18	$X=49.3195 $Y=68.726
C680	P3#14	VON#21	6.81169E-18	$X=56.1785 $Y=68.726
C681	P3#14	VON#15	6.81169E-18	$X=53.892 $Y=68.726
C682	P3#14	VON#9	6.81169E-18	$X=51.606 $Y=68.726
C683	VON	P3#12	6.95939E-18	$X=60.5275 $Y=68.807
C684	VON#23	P3#13	7.49799E-18	$X=58.619 $Y=68.0675
C685	P5#5	P4#2	1.72238E-18	$X=34.17 $Y=69.8385
C686	P5#14	P4#4	1.72238E-18	$X=49.437 $Y=69.7755
C687	P5#1	P4#6	1.91823E-18	$X=36.2725 $Y=69.226
C688	P4#3	P5#10	1.91823E-18	$X=48.414 $Y=69.2215
C689	P5#1	P4#2	5.09834E-18	$X=35.4805 $Y=69.876
C690	P5#3	P4#4	5.09834E-18	$X=47.974 $Y=69.876
C691	P4#1	P5#2	5.09834E-18	$X=35.7975 $Y=69.833
C692	P4#3	P5#4	5.09834E-18	$X=47.657 $Y=69.833
C693	P4#2	P5#9	5.5215E-18	$X=34.9715 $Y=68.9625
C694	P5#4	P4#14	5.5215E-18	$X=47.0315 $Y=68.9625
C695	P5#2	P4#6	6.68241E-18	$X=36.4225 $Y=68.9625
C696	P4#4	P5#10	6.68241E-18	$X=48.4825 $Y=68.9625
C697	P5#4	P4#4	7.00039E-18	$X=47.7575 $Y=69.5775
C698	P4#2	P5#2	7.00039E-18	$X=35.6975 $Y=69.5775
C699	VOP#6	P3#4	5.02203E-18	$X=24.789 $Y=66.839
C700	VOP#2	P3#7	5.02203E-18	$X=22.4005 $Y=66.7975
C701	VOP#1	P3#6	6.34386E-18	$X=23.094 $Y=68.9935
C702	VOP#3	P3#7	6.49646E-18	$X=22.734 $Y=68.069
C703	P3#3	VOP#15	6.81169E-18	$X=29.49 $Y=68.691
C704	P3#3	VOP#21	6.81169E-18	$X=31.8275 $Y=68.691
C705	P3#3	VOP#27	6.81169E-18	$X=34.165 $Y=68.691
C706	P3#3	VOP#9	6.81169E-18	$X=27.1525 $Y=68.691
C707	P3#3	VOP#3	6.81169E-18	$X=24.815 $Y=68.691
C708	VOP#7	P3#4	7.49799E-18	$X=24.8355 $Y=68.0675
C709	VON#11	P4#13	4.58524E-18	$X=49.9805 $Y=68.9935
C710	VON#9	P4#14	4.9201E-18	$X=48.634 $Y=68.069
C711	VON#9	P4#11	4.9201E-18	$X=50.3405 $Y=68.069
C712	VON#12	P4#11	5.02203E-18	$X=50.689 $Y=66.839
C713	VON#8	P4#14	5.02203E-18	$X=48.2855 $Y=66.8385
C714	VON#32	P4#13	6.95939E-18	$X=48.757 $Y=68.628
C715	VON#13	P4#11	7.49799E-18	$X=50.7355 $Y=68.0675
C716	VON#5	P4#14	7.49799E-18	$X=48.239 $Y=68.0675
C717	P3#14	bias#7	7.11538E-18	$X=48.9105 $Y=68.7255
C718	P3#14	bias#10	7.11538E-18	$X=49.8285 $Y=68.7255
C719	P3#3	bias#3	7.11538E-18	$X=25.303 $Y=68.69
C720	P3#3	bias#1	7.11538E-18	$X=24.3645 $Y=68.69
C721	VOP#21	P4#6	4.9201E-18	$X=34.8205 $Y=68.069
C722	VOP#21	P4#9	4.9201E-18	$X=33.114 $Y=68.069
C723	VOP#20	P4#9	5.02203E-18	$X=32.7655 $Y=66.8385
C724	VOP#24	P4#6	5.02203E-18	$X=35.169 $Y=66.839
C725	VOP#25	P4#6	7.49799E-18	$X=35.2155 $Y=68.0675
C726	VOP#17	P4#9	7.49799E-18	$X=32.719 $Y=68.0675
C727	VON#5	P5#12	4.58524E-18	$X=46.5205 $Y=68.9935
C728	VON#3	P5#10	4.9201E-18	$X=46.8805 $Y=68.069
C729	VON#6	P5#10	5.02203E-18	$X=47.229 $Y=66.839
C730	VON#1	P5#12	6.34386E-18	$X=45.534 $Y=68.9935
C731	VON#4	P5#12	6.40308E-18	$X=46.11 $Y=66.791
C732	VON#3	P5#13	6.49646E-18	$X=45.174 $Y=68.069
C733	VON#32	P5#12	6.55342E-18	$X=45.817 $Y=68.628
C734	VON#7	P5#10	7.49799E-18	$X=47.2755 $Y=68.0675
C735	P3#1	vssa#2	6.82556E-18	$X=23.6175 $Y=69.697
C736	VOP#27	P5#9	4.9201E-18	$X=36.574 $Y=68.069
C737	VOP#26	P5#9	5.02203E-18	$X=36.2255 $Y=66.8385
C738	VOP#29	P5#8	6.34386E-18	$X=37.9205 $Y=68.9935
C739	VOP#28	P5#8	6.41703E-18	$X=37.3445 $Y=66.791
C740	VOP#27	P5#6	6.49646E-18	$X=38.2805 $Y=68.069
C741	VOP#23	P5#9	7.49799E-18	$X=36.179 $Y=68.0675
C742	P3#14	avC10#5	7.11538E-18	$X=55.716 $Y=68.7225
C743	P3#14	avC10#10	7.11538E-18	$X=56.613 $Y=68.7225
C744	P3#3	avC10#3	7.11538E-18	$X=32.157 $Y=68.6855
C745	P3#3	avC9	7.11538E-18	$X=28.981 $Y=68.6865
C746	P3#3	avC9#3	7.11538E-18	$X=29.906 $Y=68.6865
C747	P3#14	avC9#10	7.11538E-18	$X=54.386 $Y=68.7235
C748	P5#3	vssa#3	6.82556E-18	$X=46.0985 $Y=70.25
C749	P3#3	avC8	7.11538E-18	$X=26.6895 $Y=68.688
C750	P3#14	avC8#8	7.11538E-18	$X=51.214 $Y=68.724
C751	P3#14	avC8#11	7.11538E-18	$X=52.125 $Y=68.724
C752	P3#3	avC8#3	7.11538E-18	$X=27.6215 $Y=68.688
C753	P3#3	avC4	7.11538E-18	$X=33.464 $Y=68.6835
C754	P3#3	avC4#3	7.11538E-18	$X=34.376 $Y=68.6835
C755	P3#14	avC4#9	7.11538E-18	$X=58.8065 $Y=68.7215
C756	avC10#13	VON#10	4.17356E-18	$X=49.701 $Y=65.65
C757	avC10#13	VON#8	4.17356E-18	$X=48.456 $Y=65.701
C758	avC10#13	VON#6	4.17356E-18	$X=47.675 $Y=65.701
C759	avC10#13	VON#14	4.17356E-18	$X=51.6555 $Y=65.701
C760	avC10#13	VON#4	4.17356E-18	$X=46.551 $Y=65.7095
C761	avC10#13	VON#12	4.17356E-18	$X=50.8745 $Y=65.701
C762	avC10#11	VON#30	4.17356E-18	$X=60.555 $Y=65.5865
C763	avC10#11	VON#28	4.17356E-18	$X=59.434 $Y=65.4955
C764	avC10#11	VON#26	4.17356E-18	$X=58.452 $Y=65.562
C765	avC10#11	VON#24	4.17356E-18	$X=57.7765 $Y=65.562
C766	avC10#13	VON#20	4.49808E-18	$X=54.8555 $Y=65.701
C767	VON#2	avC10#13	6.2731E-18	$X=45.9945 $Y=65.29
C768	avC10#13	VON#16	7.15593E-18	$X=52.8485 $Y=65.65
C769	avC10#13	VON#18	7.17508E-18	$X=54.074 $Y=65.701
C770	avC9#13	VON#4	4.96691E-18	$X=45.797 $Y=65.75
C771	avC9#11	VON#30	4.96691E-18	$X=60.3695 $Y=65.757
C772	avC9#9	VON#12	4.96691E-18	$X=50.863 $Y=65.676
C773	avC9#9	VON#14	4.96691E-18	$X=51.5475 $Y=65.676
C774	avC9#11	VON#28	4.96691E-18	$X=59.106 $Y=65.7035
C775	avC9#9	VON#8	4.96691E-18	$X=48.7455 $Y=65.676
C776	avC9#11	VON#26	4.96691E-18	$X=58.1055 $Y=65.7425
C777	avC9#11	VON#24	4.96691E-18	$X=57.383 $Y=65.7425
C778	avC9#11	VON#22	4.96691E-18	$X=56.239 $Y=65.7035
C779	avC9#11	VON#20	4.96691E-18	$X=55.147 $Y=65.7425
C780	avC9#11	VON#18	4.96691E-18	$X=54.4245 $Y=65.7425
C781	avC9#9	VON#6	4.96691E-18	$X=48.0615 $Y=65.676
C782	VON	avC9#11	8.98707E-18	$X=57.221 $Y=63.933
C783	avC8#12	VON#30	6.60115E-18	$X=60.2655 $Y=65.8525
C784	avC8#12	VON#28	6.60115E-18	$X=58.9175 $Y=65.8235
C785	avC8#12	VON#26	6.60115E-18	$X=57.9105 $Y=65.8445
C786	avC8#12	VON#14	6.60115E-18	$X=51.775 $Y=65.8445
C787	avC8#12	VON#24	6.60115E-18	$X=57.161 $Y=65.8445
C788	avC8#12	VON#16	6.60115E-18	$X=52.9315 $Y=65.8235
C789	avC8#12	VON#18	6.60115E-18	$X=54.0935 $Y=65.8445
C790	avC8#12	VON#22	6.60115E-18	$X=55.9245 $Y=65.8235
C791	avC8#12	VON#20	6.60115E-18	$X=54.8425 $Y=65.8445
C792	VON	avC8#12	7.72147E-18	$X=55.591 $Y=64.184
C793	avC10#2	VOP#4	4.17356E-18	$X=24.508 $Y=65.699
C794	avC10#2	VOP#2	4.17356E-18	$X=23.162 $Y=65.7555
C795	avC10#2	VOP#14	4.17356E-18	$X=29.356 $Y=65.7405
C796	avC10#4	VOP#28	4.17356E-18	$X=37.2585 $Y=65.716
C797	avC10#2	VOP#18	4.17356E-18	$X=31.684 $Y=65.7405
C798	avC10#4	VOP#26	4.17356E-18	$X=36.208 $Y=65.7085
C799	avC10#2	VOP#20	4.17356E-18	$X=32.436 $Y=65.7405
C800	avC10#2	VOP#10	4.17356E-18	$X=27.515 $Y=65.699
C801	avC10#4	VOP#24	4.17356E-18	$X=35.4695 $Y=65.7085
C802	avC10#2	VOP#8	4.17356E-18	$X=26.276 $Y=65.7405
C803	avC10#4	VOP#30	7.66704E-18	$X=38.2285 $Y=65.359
C804	VOP	avC10#8	9.34757E-18	$X=56.4875 $Y=55.842
C805	avC4#6	VON#24	3.42898E-18	$X=57.601 $Y=65.677
C806	avC4#6	VON#26	3.42898E-18	$X=58.3495 $Y=65.677
C807	avC4#4	VON#4	3.42898E-18	$X=45.5235 $Y=65.686
C808	avC4#6	VON#10	3.42898E-18	$X=50.4655 $Y=65.624
C809	avC4#4	VON#8	3.42898E-18	$X=47.316 $Y=65.677
C810	avC4#6	VON#12	3.42898E-18	$X=51.4675 $Y=65.677
C811	avC4#6	VON#16	3.42898E-18	$X=53.457 $Y=65.624
C812	avC4#6	VON#14	3.42898E-18	$X=52.2165 $Y=65.677
C813	VON	avC4#10	3.65368E-18	$X=60.785 $Y=63.883
C814	avC4#20	VON#30	4.64178E-18	$X=61.173 $Y=65.8375
C815	VON	avC4#14	5.16214E-18	$X=65.465 $Y=65.9635
C816	avC4#4	VON#2	7.00397E-18	$X=43.5725 $Y=65.2745
C817	avC9#4	VOP#18	4.96691E-18	$X=31.888 $Y=65.66
C818	avC9#2	VOP#8	4.96691E-18	$X=26.0715 $Y=65.7425
C819	avC9#4	VOP#20	4.96691E-18	$X=32.563 $Y=65.66
C820	avC9#2	VOP#6	4.96691E-18	$X=25.349 $Y=65.7425
C821	avC9#4	VOP#22	4.96691E-18	$X=33.547 $Y=65.61
C822	avC9#2	VOP#4	4.96691E-18	$X=24.3485 $Y=65.7035
C823	avC9#2	VOP#2	4.96691E-18	$X=23.0855 $Y=65.757
C824	avC9#13	VOP#28	4.96691E-18	$X=37.6095 $Y=65.75
C825	avC9#13	VOP#26	4.96691E-18	$X=36.508 $Y=65.7425
C826	avC9#4	VOP#24	4.96691E-18	$X=34.652 $Y=65.66
C827	VOP#32	avC9#6	9.96582E-18	$X=40.5345 $Y=57.3385
C828	avC8#2	VOP#4	6.5874E-18	$X=24.0455 $Y=65.7115
C829	avC8#13	VOP#24	6.60115E-18	$X=34.962 $Y=65.7875
C830	avC8#2	VOP#6	6.60115E-18	$X=25.0085 $Y=65.746
C831	avC8#13	VOP#22	6.60115E-18	$X=33.701 $Y=65.7535
C832	avC8#13	VOP#28	6.60115E-18	$X=36.879 $Y=65.7935
C833	avC8#13	VOP#20	6.60115E-18	$X=32.5295 $Y=65.7875
C834	avC8#13	VOP#18	6.60115E-18	$X=31.744 $Y=65.7875
C835	avC8#13	VOP#16	6.60115E-18	$X=30.532 $Y=65.7535
C836	avC8#13	VOP#26	6.60115E-18	$X=35.7475 $Y=65.7875
C837	VOP#30	avC8#9	7.00695E-18	$X=41.0515 $Y=65.6405
C838	avC4#2	VOP#8	3.42898E-18	$X=26.4005 $Y=65.739
C839	avC4#2	VOP#10	3.42898E-18	$X=27.7005 $Y=65.6965
C840	avC4#2	VOP#26	3.42898E-18	$X=35.863 $Y=65.739
C841	avC4#2	VOP#14	3.42898E-18	$X=29.555 $Y=65.739
C842	avC4#2	VOP#24	3.42898E-18	$X=35.093 $Y=65.739
C843	avC4#2	VOP#4	3.42898E-18	$X=24.6065 $Y=65.6965
C844	avC4#2	VOP#20	3.42898E-18	$X=32.709 $Y=65.739
C845	avC4#2	VOP#18	3.42898E-18	$X=31.9385 $Y=65.739
C846	avC4#2	VOP#16	3.42898E-18	$X=30.794 $Y=65.6965
C847	avC4#4	VOP#30	6.64478E-18	$X=39.2745 $Y=65.2745
C848	VOP#32	avC4#6	6.8409E-18	$X=52.008 $Y=63.2985
C849	avC4#4	bias#8	4.38648E-18	$X=41.771 $Y=64.523
C850	avC4#20	bias#11	4.67978E-18	$X=53.7785 $Y=64.7095
C851	avC10#13	avC8#9	6.78531E-18	$X=48.446 $Y=64.114
C852	avC4#2	avC8#4	5.20728E-18	$X=28.082 $Y=65.1385
C853	P1	vsub	1.42228E-16	$X=19.2705 $Y=71.4675
C854	P2	vsub	1.01807E-16	$X=18.8355 $Y=70.9075
C855	P3	vsub	1.59615E-16	$X=19.0805 $Y=70.3475
C856	P4	vsub	1.62386E-16	$X=21.725 $Y=72.0275
C857	P5	vsub	2.80083E-16	$X=22.5875 $Y=72.5875
C858	VON	vsub	3.58543E-16	$X=67.3945 $Y=60.7985
C859	VOP	vsub	7.06698E-16	$X=66.516 $Y=59.7185
C860	bias	vsub	6.10865E-17	$X=58.2245 $Y=29.5505
C861	vdda	vsub	2.86794E-17	$X=46.9495 $Y=47.338
C862	vssa	vsub	2.14915E-16	$X=72.158 $Y=66.4425
C863	VOP#32	vsub	7.38584E-16	$X=38.818 $Y=62.718
C864	VON#32	vsub	3.12692E-16	$X=44.6275 $Y=63.2575
C865	bias#12	vsub	5.03737E-16	$X=21.521 $Y=61.523
C866	P3#3	vsub	5.92454E-16	$X=27.372 $Y=70.2865
C867	P2#3	vsub	3.16701E-16	$X=29.536 $Y=70.7765
C868	avC8#10	vsub	1.10515E-16	$X=28.538 $Y=57.217
C869	avC8#13	vsub	3.42156E-16	$X=30.8005 $Y=63.5525
C870	P1#3	vsub	3.35148E-16	$X=31.698 $Y=71.2665
C871	P4#5	vsub	3.05588E-16	$X=33.879 $Y=71.7565
C872	P5#5	vsub	3.41752E-16	$X=36.04 $Y=72.2465
C873	avC9#12	vsub	4.62598E-17	$X=41.2975 $Y=57.0845
C874	avC9#13	vsub	2.82245E-16	$X=41.3925 $Y=63.0635
C875	P5#14	vsub	4.79595E-16	$X=48.812 $Y=72.2465
C876	P4#10	vsub	3.8604E-16	$X=50.542 $Y=71.7565
C877	avC10#12	vsub	6.92011E-17	$X=54.047 $Y=56.937
C878	P1#14	vsub	3.86554E-16	$X=52.272 $Y=71.2665
C879	avC10#13	vsub	3.38434E-16	$X=51.852 $Y=62.5725
C880	P2#14	vsub	3.17794E-16	$X=54.002 $Y=70.7765
C881	P3#14	vsub	5.50603E-16	$X=55.732 $Y=70.2865
C882	avC4#20	vsub	3.2813E-16	$X=61.9165 $Y=62.973
C883	avC4#22	vsub	7.99166E-17	$X=64.8545 $Y=66.4825
C884	VOP#2	vsub	7.93466E-17	$X=22.3125 $Y=65.956
C885	bias#2	vsub	6.97441E-17	$X=22.995 $Y=65.466
C886	P3#1	vsub	2.12911E-17	$X=23.5875 $Y=69.7
C887	VOP#4	vsub	5.17955E-17	$X=23.5875 $Y=65.956
C888	bias#4	vsub	1.69916E-16	$X=26.7425 $Y=65.466
C889	VOP#6	vsub	5.8366E-17	$X=24.895 $Y=65.956
C890	VOP#8	vsub	4.96823E-17	$X=25.74 $Y=65.956
C891	avC8#2	vsub	1.73231E-16	$X=25.426 $Y=64.976
C892	P2#1	vsub	3.5415E-17	$X=27.0475 $Y=69.84
C893	VOP#10	vsub	6.09579E-17	$X=27.0475 $Y=65.956
C894	avC8#4	vsub	7.55045E-17	$X=27.7475 $Y=65.245
C895	VOP#12	vsub	4.7457E-17	$X=28.355 $Y=65.956
C896	VOP#14	vsub	4.73021E-17	$X=29.2 $Y=65.956
C897	avC9#2	vsub	2.64139E-16	$X=28.0275 $Y=64.486
C898	P1#1	vsub	4.31414E-17	$X=30.5075 $Y=69.98
C899	VOP#16	vsub	5.93023E-17	$X=30.5075 $Y=65.956
C900	avC9#4	vsub	1.59363E-16	$X=32.18 $Y=64.486
C901	VOP#18	vsub	4.97304E-17	$X=31.815 $Y=65.956
C902	VOP#20	vsub	4.96784E-17	$X=32.66 $Y=65.956
C903	avC10#2	vsub	3.46611E-16	$X=30.6225 $Y=63.996
C904	P4#1	vsub	5.39396E-17	$X=33.9675 $Y=70.12
C905	VOP#22	vsub	5.77676E-17	$X=33.9675 $Y=65.956
C906	avC10#4	vsub	2.08328E-16	$X=36.8175 $Y=63.996
C907	VOP#24	vsub	5.22417E-17	$X=35.275 $Y=65.956
C908	VOP#26	vsub	4.96784E-17	$X=36.12 $Y=65.956
C909	avC4#2	vsub	6.05272E-16	$X=33.2175 $Y=63.506
C910	P5#1	vsub	6.93583E-17	$X=37.4275 $Y=70.26
C911	VOP#28	vsub	4.93636E-17	$X=37.32 $Y=65.956
C912	avC4#4	vsub	3.47385E-16	$X=40.5825 $Y=63.506
C913	VOP#30	vsub	9.9576E-17	$X=38.8025 $Y=65.913
C914	VON#2	vsub	1.02381E-16	$X=44.6525 $Y=65.913
C915	bias#8	vsub	2.9709E-16	$X=42.8725 $Y=65.466
C916	P5#3	vsub	6.38578E-17	$X=46.0275 $Y=70.26
C917	VON#4	vsub	5.41111E-17	$X=46.135 $Y=65.956
C918	bias#11	vsub	2.38084E-16	$X=50.237 $Y=65.466
C919	VON#6	vsub	6.07936E-17	$X=47.335 $Y=65.956
C920	VON#8	vsub	4.96823E-17	$X=48.1795 $Y=65.956
C921	avC8#9	vsub	2.3216E-16	$X=46.5415 $Y=64.976
C922	P4#3	vsub	5.39396E-17	$X=49.487 $Y=70.12
C923	VON#10	vsub	5.51452E-17	$X=49.487 $Y=65.956
C924	avC8#12	vsub	2.24675E-16	$X=52.832 $Y=64.976
C925	VON#12	vsub	4.97343E-17	$X=50.7945 $Y=65.956
C926	VON#14	vsub	4.96784E-17	$X=51.6395 $Y=65.956
C927	avC9#9	vsub	1.98218E-16	$X=51.1545 $Y=64.486
C928	P1#8	vsub	4.08107E-17	$X=52.947 $Y=69.98
C929	VON#16	vsub	5.51375E-17	$X=52.947 $Y=65.956
C930	avC9#11	vsub	1.97875E-16	$X=55.427 $Y=64.486
C931	VON#18	vsub	5.00895E-17	$X=54.2545 $Y=65.956
C932	VON#20	vsub	5.09329E-17	$X=55.0995 $Y=65.956
C933	avC10#6	vsub	9.77975E-17	$X=55.792 $Y=63.996
C934	P2#8	vsub	3.5415E-17	$X=56.407 $Y=69.84
C935	VON#22	vsub	5.77676E-17	$X=56.407 $Y=65.956
C936	avC10#11	vsub	1.57905E-16	$X=58.022 $Y=63.996
C937	VON#24	vsub	4.97304E-17	$X=57.7145 $Y=65.956
C938	VON#26	vsub	4.96784E-17	$X=58.5595 $Y=65.956
C939	avC4#6	vsub	3.14526E-16	$X=56.712 $Y=63.506
C940	P3#8	vsub	2.87099E-17	$X=59.867 $Y=69.7
C941	VON#28	vsub	5.36028E-17	$X=59.867 $Y=65.956
C942	avC4#10	vsub	9.3276E-17	$X=60.567 $Y=63.985
C943	VON#30	vsub	6.8383E-17	$X=61.142 $Y=65.956
C944	avC4#12	vsub	2.17886E-17	$X=65.267 $Y=67.5475
C945	vdda#6	vsub	8.83418E-17	$X=71.286 $Y=56.291
C946	vdda#9	vsub	2.14309E-18	$X=70.788 $Y=50.2935
C947	vdda#8	vsub	8.94913E-17	$X=71.455 $Y=57.2875
C948	P3#2	vsub	3.24272E-17	$X=23.5875 $Y=69.5775
C949	P2#2	vsub	1.83081E-17	$X=27.0475 $Y=69.5775
C950	P1#2	vsub	1.68346E-17	$X=30.5075 $Y=69.5775
C951	P4#2	vsub	1.55052E-17	$X=33.9675 $Y=69.5775
C952	P5#2	vsub	3.23423E-17	$X=37.4275 $Y=69.5775
C953	P5#4	vsub	2.93107E-17	$X=46.0275 $Y=69.5775
C954	P4#4	vsub	1.55052E-17	$X=49.487 $Y=69.5775
C955	P1#9	vsub	1.68346E-17	$X=52.947 $Y=69.5775
C956	P2#9	vsub	1.83093E-17	$X=56.407 $Y=69.5775
C957	P3#9	vsub	2.89301E-17	$X=59.867 $Y=69.5775
C958	avC4#11	vsub	1.30006E-16	$X=66.0095 $Y=67.885
C959	avC3	vsub	1.55093E-16	$X=68.687 $Y=67.885
C960	P3#7	vsub	1.09541E-16	$X=22.5375 $Y=68.1025
C961	P3#6	vsub	1.98404E-16	$X=23.5875 $Y=69.5775
C962	P3#4	vsub	1.07014E-16	$X=24.6375 $Y=68.1025
C963	P2#7	vsub	1.00051E-16	$X=25.9975 $Y=68.1025
C964	P2#6	vsub	1.93302E-16	$X=27.0475 $Y=69.5775
C965	P2#4	vsub	1.0216E-16	$X=28.0975 $Y=68.1025
C966	P1#7	vsub	9.94768E-17	$X=29.4575 $Y=68.1025
C967	P1#6	vsub	2.0231E-16	$X=30.5075 $Y=69.5775
C968	P1#4	vsub	1.01037E-16	$X=31.5575 $Y=68.1025
C969	P4#9	vsub	1.00051E-16	$X=32.9175 $Y=68.1025
C970	P4#8	vsub	2.0231E-16	$X=33.9675 $Y=69.5775
C971	P4#6	vsub	1.01037E-16	$X=35.0175 $Y=68.1025
C972	P5#9	vsub	1.00051E-16	$X=36.3775 $Y=68.1025
C973	P5#8	vsub	2.0021E-16	$X=37.4275 $Y=69.5775
C974	P5#6	vsub	1.12229E-16	$X=38.4775 $Y=68.1025
C975	P5#13	vsub	1.13679E-16	$X=44.9775 $Y=68.1025
C976	P5#12	vsub	1.95638E-16	$X=46.0275 $Y=69.5775
C977	P5#10	vsub	1.04517E-16	$X=47.0775 $Y=68.1025
C978	P4#14	vsub	1.03531E-16	$X=48.437 $Y=68.1025
C979	P4#13	vsub	1.97725E-16	$X=49.487 $Y=69.5775
C980	P4#11	vsub	1.06435E-16	$X=50.537 $Y=68.1025
C981	P1#13	vsub	1.03531E-16	$X=51.897 $Y=68.1025
C982	P1#12	vsub	2.01205E-16	$X=52.947 $Y=69.5775
C983	P1#10	vsub	1.02955E-16	$X=53.997 $Y=68.1025
C984	P2#13	vsub	1.03531E-16	$X=55.357 $Y=68.1025
C985	P2#12	vsub	1.93302E-16	$X=56.407 $Y=69.5775
C986	P2#10	vsub	1.06435E-16	$X=57.457 $Y=68.1025
C987	P3#13	vsub	1.0267E-16	$X=58.817 $Y=68.1025
C988	P3#12	vsub	1.98404E-16	$X=59.867 $Y=69.5775
C989	P3#10	vsub	1.08622E-16	$X=60.917 $Y=68.1025
C990	avC4#18	vsub	1.39781E-16	$X=66.027 $Y=66.4925
C991	avC3#5	vsub	1.41458E-16	$X=68.717 $Y=66.4925
C992	vssa#1	vsub	1.89473E-16	$X=46.1955 $Y=60.1105
C993	vssa#2	vsub	1.28391E-16	$X=30.701 $Y=69.09
C994	vssa#3	vsub	1.81166E-16	$X=54.5455 $Y=69.0835
C995	vssa#5	vsub	1.65354E-16	$X=67.784 $Y=66.8505
C996	VOP#1	vsub	1.38667E-17	$X=22.1915 $Y=67.9255
C997	bias#1	vsub	1.15338E-17	$X=22.8875 $Y=67.906
C998	VOP#3	vsub	8.12328E-18	$X=23.5875 $Y=67.9255
C999	bias#3	vsub	1.29298E-17	$X=24.2875 $Y=67.906
C1000	VOP#5	vsub	1.37039E-17	$X=24.983 $Y=67.9255
C1001	VOP#7	vsub	4.91525E-18	$X=25.6515 $Y=67.9255
C1002	avC8	vsub	1.72861E-17	$X=26.3475 $Y=67.8855
C1003	VOP#9	vsub	3.20371E-18	$X=27.0475 $Y=67.9255
C1004	avC8#3	vsub	1.72861E-17	$X=27.7475 $Y=67.8855
C1005	VOP#11	vsub	7.35153E-18	$X=28.443 $Y=67.9255
C1006	VOP#13	vsub	1.15814E-17	$X=29.1115 $Y=67.9255
C1007	avC9	vsub	2.52843E-17	$X=29.8075 $Y=67.8655
C1008	VOP#15	vsub	3.20371E-18	$X=30.5075 $Y=67.9255
C1009	avC9#3	vsub	2.52843E-17	$X=31.2075 $Y=67.8655
C1010	VOP#17	vsub	1.37039E-17	$X=31.903 $Y=67.9255
C1011	VOP#19	vsub	1.37039E-17	$X=32.5715 $Y=67.9255
C1012	avC10	vsub	4.42485E-17	$X=33.2675 $Y=67.846
C1013	VOP#21	vsub	3.20371E-18	$X=33.9675 $Y=67.9255
C1014	avC10#3	vsub	3.55338E-17	$X=34.6675 $Y=67.846
C1015	VOP#23	vsub	9.50048E-18	$X=35.363 $Y=67.9255
C1016	VOP#25	vsub	9.50048E-18	$X=36.0315 $Y=67.9255
C1017	avC4	vsub	4.63878E-17	$X=36.7275 $Y=67.8255
C1018	VOP#27	vsub	3.20371E-18	$X=37.4275 $Y=67.9255
C1019	avC4#3	vsub	4.90728E-17	$X=38.1275 $Y=67.8255
C1020	VOP#29	vsub	1.04321E-17	$X=38.823 $Y=67.9255
C1021	VON#1	vsub	1.46355E-17	$X=44.6315 $Y=67.9255
C1022	bias#7	vsub	1.15338E-17	$X=45.3275 $Y=67.906
C1023	VON#3	vsub	3.20318E-18	$X=46.0275 $Y=67.9255
C1024	bias#10	vsub	1.29298E-17	$X=46.7275 $Y=67.906
C1025	VON#5	vsub	4.91525E-18	$X=47.423 $Y=67.9255
C1026	VON#7	vsub	9.50048E-18	$X=48.091 $Y=67.9255
C1027	avC8#8	vsub	1.72861E-17	$X=48.787 $Y=67.8855
C1028	VON#9	vsub	3.20371E-18	$X=49.487 $Y=67.9255
C1029	avC8#11	vsub	1.72861E-17	$X=50.187 $Y=67.8855
C1030	VON#11	vsub	4.91525E-18	$X=50.8825 $Y=67.9255
C1031	VON#13	vsub	4.91525E-18	$X=51.551 $Y=67.9255
C1032	avC9#8	vsub	3.23997E-17	$X=52.247 $Y=67.8655
C1033	VON#15	vsub	3.20371E-18	$X=52.947 $Y=67.9255
C1034	avC9#10	vsub	2.52843E-17	$X=53.647 $Y=67.8655
C1035	VON#17	vsub	9.50048E-18	$X=54.3425 $Y=67.9255
C1036	VON#19	vsub	4.91525E-18	$X=55.011 $Y=67.9255
C1037	avC10#5	vsub	3.71331E-17	$X=55.707 $Y=67.846
C1038	VON#21	vsub	3.20371E-18	$X=56.407 $Y=67.9255
C1039	avC10#10	vsub	3.55338E-17	$X=57.107 $Y=67.846
C1040	VON#23	vsub	4.91525E-18	$X=57.8025 $Y=67.9255
C1041	VON#25	vsub	9.50048E-18	$X=58.471 $Y=67.9255
C1042	avC4#5	vsub	5.35032E-17	$X=59.167 $Y=67.8255
C1043	VON#27	vsub	3.20371E-18	$X=59.867 $Y=67.9255
C1044	avC4#9	vsub	4.59441E-17	$X=60.567 $Y=67.8255
C1045	VON#29	vsub	1.26493E-17	$X=61.2625 $Y=67.9255
C1046	avC4#14	vsub	1.69371E-18	$X=65.273 $Y=66.477
C1047	avC3#4	vsub	2.68838E-17	$X=66.782 $Y=66.477
C1048	avC3#2	vsub	2.68117E-17	$X=67.962 $Y=66.477
C1049	vssa#7	vsub	2.07531E-17	$X=69.472 $Y=66.4775
C1050	vssa#4	vsub	2.4286E-18	$X=43.0725 $Y=73.667
*
*
.ENDS RDAC
*
